New Line.oh_29332316 Units=km Length=0.010176959000000001 bus1=422437_17_166237_348.1.2.3 bus2=TIEPOINT_31007102024.1.2.3 switch=n enabled=y phases=3 Linecode=OVR_800_21875_3

New Line.oh_5776538 Units=km Length=0.129189686 bus1=419216_849_164897_781.1.2.3 bus2=31109102006.1.2.3 switch=y enabled=n phases=3 Linecode=21859_3

New Line.oh_5186417 Units=km Length=0.03689196 bus1=31007102513.1 bus2=31007102512.1 switch=n enabled=y phases=1 Linecode=1P_OH_Code0

New Line.oh_5207923-2 Units=km Length=0.11050404600000001 bus1=420532_809_163855_896.1.2.3 bus2=31108302054.1.2.3 switch=n enabled=y phases=3 Linecode=3P_OH_Code1

New Line.oh_5222585 Units=km Length=0.144257908 bus1=31109102014_37293748.1.2.3 bus2=31109102516.1.2.3 switch=y enabled=y phases=3 Linecode=21898_3

New Line.oh_5222649 Units=km Length=0.064588618 bus1=31109102523.1.2.3 bus2=31109102011.1.2.3 switch=n enabled=y phases=3 Linecode=3P_OH_Code2

New Line.oh_5207001 Units=km Length=0.12000000400000001 bus1=31108302028.1.2.3 bus2=420713_883_163803_97.1.2.3 switch=n enabled=y phases=3 Linecode=3P_OH_Code1

New Line.oh_14847869 Units=km Length=0.26979221999999997 bus1=30908202509.1 bus2=421422_768_167911_411.1 switch=n enabled=y phases=1 Linecode=1P_OH_Code3

New Line.oh_5207258 Units=km Length=0.01256 bus1=31108202020.2.3 bus2=31108202021.2.3 switch=n enabled=y phases=2 Linecode=K_100_13.8KV_2

New Fuse.Fuse_oh_5207258 monitoredobj=Line.oh_5207258 enabled=y ratedcurrent=10000.0

New Line.oh_5207263-1 Units=km Length=0.40767913 bus1=31108202022.1.2.3 bus2=31108202020.1.2.3 switch=n enabled=y phases=3 Linecode=3P_OH_Code1

New Line.oh_5243472 Units=km Length=0.125140004 bus1=31108302501.1.2.3 bus2=TIEPOINT_31108302005.1.2.3 switch=n enabled=y phases=3 Linecode=VSA_600_21398_3

New Line.oh_5244830 Units=km Length=0.09500000300000001 bus1=31109102512.1.2.3 bus2=31109102010.1.2.3 switch=n enabled=y phases=3 Linecode=3P_OH_Code2

New Line.oh_5244912 Units=km Length=0.17050507099999998 bus1=31007302069.1.2.3 bus2=31007302044_5445897.1.2.3 switch=n enabled=y phases=3 Linecode=3P_OH_Code1

New Line.oh_14847175-1 Units=km Length=0.14443382 bus1=422537_995_167276_625.1.2.3 bus2=422534_845_167320_578.1.2.3 switch=n enabled=y phases=3 Linecode=3P_OH_Code1

New Line.oh_5222839-3 Units=km Length=0.13280337 bus1=31109402502.1.2.3 bus2=420122_41_164001_156.1.2.3 switch=n enabled=y phases=3 Linecode=3P_OH_Code1

New Line.oh_5243511 Units=km Length=0.113687123 bus1=31007102010.1.2.3 bus2=31007102011.1.2.3 switch=n enabled=y phases=3 Linecode=3P_OH_Code1

New Line.oh_5186425 Units=km Length=0.540000017 bus1=422529_227_166443_654.1 bus2=422695_478_166451_568.1 switch=n enabled=y phases=1 Linecode=1P_OH_Code4

New Line.oh_5186538 Units=km Length=0.08032800500000001 bus1=422459_418_166376_291.1.2.3 bus2=31007102510.1.2.3 switch=n enabled=y phases=3 Linecode=3P_OH_Code1

New Line.oh_5516885 Units=km Length=0.01 bus1=SOURCE_7732-1.1.2.3 bus2=31109103502.1.2.3 switch=y enabled=y phases=3 Linecode=SUB_O_13.0KV_3

New Line.oh_5208036 Units=km Length=0.098763537 bus1=420952_804_164009_2.1.2.3 bus2=420947_884_164038_939.1.2.3 switch=n enabled=y phases=3 Linecode=3P_OH_Code1

New Line.oh_14847880 Units=km Length=0.169234746 bus1=30908202509.1 bus2=421518_838_167915_891.1 switch=n enabled=y phases=1 Linecode=1P_OH_Code0

New Line.oh_5516386 Units=km Length=0.02000004 bus1=31109103066.1.2.3 bus2=5517698-1.1.2.3 switch=n enabled=y phases=3 Linecode=3P_OH_Code5

New Line.oh_5223029-1 Units=km Length=0.086041269 bus1=31109102002.1.2.3 bus2=419208_115_164934_839.1.2.3 switch=n enabled=y phases=3 Linecode=3P_OH_Code1

New Line.oh_5186281-3 Units=km Length=0.156887364 bus1=31007102014.1.2.3 bus2=422411_83_166213_296.1.2.3 switch=n enabled=y phases=3 Linecode=3P_OH_Code1

New Line.oh_29332314 Units=km Length=0.02000004 bus1=422437_17_166237_348.1.2.3 bus2=TIEPOINT_31007102024.1.2.3 switch=y enabled=n phases=3 Linecode=21898_3

New Line.oh_5207988 Units=km Length=0.100000003 bus1=420571_826_163845_007.1.2.3 bus2=420588_003_163840_498.1.2.3 switch=n enabled=y phases=3 Linecode=3P_OH_Code1

New Line.oh_5204357-1 Units=km Length=0.103087434 bus1=421861_122_165564_535.1.2.3 bus2=421873_837_165592_213.1.2.3 switch=n enabled=y phases=3 Linecode=3P_OH_Code1

New Line.oh_5208029 Units=km Length=0.186681174 bus1=420930_291_163925_214.1.2.3 bus2=420954_187_163976_899.1.2.3 switch=n enabled=y phases=3 Linecode=3P_OH_Code1

New Line.oh_5185275-6 Units=km Length=0.371816892 bus1=422549_348_167023_21.1.2.3 bus2=30907302506.1.2.3 switch=n enabled=y phases=3 Linecode=3P_OH_Code1

New Line.oh_5208077 Units=km Length=0.169870488 bus1=419661_63_164388_544.3 bus2=419637_366_164342_857.3 switch=n enabled=y phases=1 Linecode=1P_OH_Code0

New Line.oh_5222975 Units=km Length=0.471536324 bus1=31109202012.2 bus2=420177_331_164531_389.2 switch=n enabled=y phases=1 Linecode=1P_OH_Code0

New Line.oh_5222557 Units=km Length=0.157492331 bus1=31109102509.1.2.3 bus2=419329_348_164703_337.1.2.3 switch=n enabled=y phases=3 Linecode=3P_OH_Code1

New Line.oh_5186403-1 Units=km Length=0.108964833 bus1=421892_563_165633_895.1.2.3 bus2=31007302069.1.2.3 switch=n enabled=y phases=3 Linecode=3P_OH_Code1

New Line.oh_5185340 Units=km Length=0.27962317800000003 bus1=30907302506.1.2.3 bus2=422542_318_167185_05.1.2.3 switch=n enabled=y phases=3 Linecode=3P_OH_Code1

New Line.oh_5207263-3 Units=km Length=0.26220667200000003 bus1=421282_182_164549_5.1.2.3 bus2=31108202503.1.2.3 switch=n enabled=y phases=3 Linecode=3P_OH_Code1

New Line.oh_14847175-3 Units=km Length=0.163803467 bus1=422533_887_167353_436.1.2.3 bus2=30907302000_15050083.1.2.3 switch=n enabled=y phases=3 Linecode=3P_OH_Code1

New Line.oh_14847891-2 Units=km Length=0.143283673 bus1=30908202512.1.2.3 bus2=421615_793_167881_186.1.2.3 switch=n enabled=y phases=3 Linecode=3P_OH_Code1

New Line.oh_5222839-1 Units=km Length=0.20076438600000002 bus1=420205_399_163967_73.1.2.3 bus2=420263_025_163947_562.1.2.3 switch=n enabled=y phases=3 Linecode=3P_OH_Code1

New Line.oh_5243344-2 Units=km Length=0.18186390700000002 bus1=422278_191_166039_735.1.2.3 bus2=31007102013.1.2.3 switch=n enabled=y phases=3 Linecode=3P_OH_Code1

New Line.oh_5186309-2 Units=km Length=0.198243225 bus1=31007102513.1.2.3 bus2=422183_827_165973_859.1.2.3 switch=n enabled=y phases=3 Linecode=3P_OH_Code1

New Line.oh_5204441 Units=km Length=0.12142350500000001 bus1=421711_098_165180_565.1.2.3 bus2=421730_805_165211_926.1.2.3 switch=n enabled=y phases=3 Linecode=3P_OH_Code1

New Line.oh_5207520-1 Units=km Length=0.34124447900000004 bus1=31108202503.3 bus2=421258_627_164693_867.3 switch=n enabled=y phases=1 Linecode=1P_OH_Code0

New Line.oh_5208064 Units=km Length=0.021227442 bus1=31109202505.2 bus2=419528_434_164522_652.2 switch=n enabled=y phases=1 Linecode=1P_OH_Code0

New Line.oh_5208054 Units=km Length=0.407451552 bus1=420821_527_164159_055.3 bus2=420722_35_164233_84.3 switch=n enabled=y phases=1 Linecode=1P_OH_Code3

New Line.oh_40944202 Units=km Length=0.06821356199999999 bus1=420928_664_163724_052.1.2.3 bus2=TIEPOINT_31108302064.1.2.3 switch=n enabled=y phases=3 Linecode=3P_OH_Code1

New Line.oh_5185171 Units=km Length=0.378336849 bus1=422429_242_167110_902.2 bus2=422316_405_167134_561.2 switch=n enabled=y phases=1 Linecode=1P_OH_Code0

New Line.oh_14856505 Units=km Length=0.173686315 bus1=30907102019.1.2.3 bus2=422279_962_167707_63.1.2.3 switch=n enabled=y phases=3 Linecode=3P_OH_Code1

New Line.oh_5207633-9 Units=km Length=0.201579961 bus1=31108102506.1.2.3 bus2=420955_644_164306_948.1.2.3 switch=n enabled=y phases=3 Linecode=3P_OH_Code1

New Line.oh_14847571 Units=km Length=0.146135474 bus1=421547_552_167747_67.2 bus2=30908202508.2 switch=n enabled=y phases=1 Linecode=K_65_13.8KV_1

New Fuse.Fuse_oh_14847571 monitoredobj=Line.oh_14847571 enabled=y ratedcurrent=10000.0

New Line.oh_5207789-2 Units=km Length=0.13775827899999998 bus1=420713_883_163803_97.1.2.3 bus2=420755_065_163792_089.1.2.3 switch=n enabled=y phases=3 Linecode=3P_OH_Code1

New Line.oh_5186281-1 Units=km Length=0.123987678 bus1=31007102018.1.2.3 bus2=31007102019.1.2.3 switch=n enabled=y phases=3 Linecode=3P_OH_Code1

New Line.oh_14847833-2 Units=km Length=0.12514908200000002 bus1=421600_142_167854_055.1.2.3 bus2=30908202507.1.2.3 switch=n enabled=y phases=3 Linecode=3P_OH_Code1

New Line.oh_14845428-2 Units=km Length=0.16913787300000002 bus1=30808402002.1.2.3 bus2=421221_001_168397_668.1.2.3 switch=n enabled=y phases=3 Linecode=3P_OH_Code1

New Line.oh_5207628 Units=km Length=0.18808747 bus1=420918_277_164087_374.1.3 bus2=420871_68_164120_888.1.3 switch=n enabled=y phases=2 Linecode=2P_OH_Code6

New Line.oh_5776524 Units=km Length=0.129189686 bus1=419215_451_164903_662.1.2.3 bus2=31109102006.1.2.3 switch=n enabled=y phases=3 Linecode=3P_OH_Code1

New Line.oh_5204357-3 Units=km Length=0.150768706 bus1=421816_696_165439_965.1.2.3 bus2=421831_532_165481_969.1.2.3 switch=n enabled=y phases=3 Linecode=3P_OH_Code1

New Line.oh_5207570 Units=km Length=0.121105778 bus1=420947_884_164038_939.1.2.3 bus2=31108302507.1.2.3 switch=n enabled=y phases=3 Linecode=3P_OH_Code1

New Line.oh_5207972-2 Units=km Length=0.311619462 bus1=421078_884_164447_488.2 bus2=31108102005.2 switch=n enabled=y phases=1 Linecode=1P_OH_Code0

New Line.oh_14847390-1 Units=km Length=0.159154821 bus1=422118_989_167736_929.1.2.3 bus2=30907102505.1.2.3 switch=n enabled=y phases=3 Linecode=3P_OH_Code1

New Line.oh_5222571 Units=km Length=0.33874967600000006 bus1=419329_348_164703_337.1.2.3 bus2=31109102014_37293748.1.2.3 switch=n enabled=y phases=3 Linecode=3P_OH_Code1

New Line.oh_14847955-4 Units=km Length=0.107790879 bus1=30808402501.1.2.3 bus2=30808402001.1.2.3 switch=n enabled=y phases=3 Linecode=3P_OH_Code1

New Line.oh_14846975-1 Units=km Length=0.183679779 bus1=422475_023_167511_353.1.2.3 bus2=30907102506.1.2.3 switch=n enabled=y phases=3 Linecode=3P_OH_Code1

New Line.oh_5222950-1 Units=km Length=0.190022349 bus1=419950_58_164400_26.2 bus2=419973_63_164446_5.2 switch=n enabled=y phases=1 Linecode=1P_OH_Code0

New Line.oh_5516900 Units=km Length=0.01 bus1=31109103066.1.2.3 bus2=31109103032_5517430.1.2.3 switch=y enabled=y phases=3 Linecode=DEFAULT_3

New Line.oh_5207520-3 Units=km Length=0.132467954 bus1=421217_53_164740_16.3 bus2=421199_111_164774_969.3 switch=n enabled=y phases=1 Linecode=1P_OH_Code0

New Line.oh_5222660 Units=km Length=0.099471178 bus1=31109202008.2 bus2=31109202503.2 switch=n enabled=y phases=1 Linecode=1P_OH_Code0

New Line.oh_14847884 Units=km Length=0.10246828100000001 bus1=421615_793_167881_186.1.2.3 bus2=421600_142_167854_055.1.2.3 switch=y enabled=y phases=3 Linecode=21898_3

New Line.oh_5243903 Units=km Length=0.19933241799999998 bus1=420397_599_163890_626.1.2.3 bus2=420413_611_163883_34.1.2.3 switch=n enabled=y phases=3 Linecode=3P_OH_Code1

New Line.oh_5206960 Units=km Length=0.12000000400000001 bus1=420588_003_163840_498.1.2.3 bus2=420632_644_163827_848.1.2.3 switch=n enabled=y phases=3 Linecode=3P_OH_Code1

New Line.oh_5243499 Units=km Length=0.135564184 bus1=420866_498_163825_132.1.2.3 bus2=31108302004.1.2.3 switch=n enabled=y phases=3 Linecode=3P_OH_Code1

New Line.oh_5776569 Units=km Length=0.107195683 bus1=31108202502.2 bus2=421176_373_164390_132.2 switch=n enabled=y phases=1 Linecode=K_101_13.8KV_1

New Fuse.Fuse_oh_5776569 monitoredobj=Line.oh_5776569 enabled=y ratedcurrent=10000.0

New Line.oh_14846800-1 Units=km Length=0.14412556599999998 bus1=422279_962_167707_63.1.2.3 bus2=422236_429_167701_623.1.2.3 switch=n enabled=y phases=3 Linecode=3P_OH_Code1

New Line.oh_5222714-1 Units=km Length=0.301732913 bus1=419570_571_164471_8.1.2.3 bus2=31109202101_5445652.1.2.3 switch=n enabled=y phases=3 Linecode=3P_OH_Code1

New Line.oh_5222950 Units=km Length=0.268070494 bus1=31109202006.2 bus2=419950_58_164400_26.2 switch=n enabled=y phases=1 Linecode=1P_OH_Code0

New Line.oh_5222987 Units=km Length=0.39799751600000005 bus1=31109202505.2 bus2=419464_822_164413_811.2 switch=n enabled=y phases=1 Linecode=1P_OH_Code3

New Line.oh_14847848-2 Units=km Length=0.104822684 bus1=30908202509.1 bus2=421477_302_167843_507.1 switch=n enabled=y phases=1 Linecode=1P_OH_Code3

New Line.oh_38212343-3 Units=km Length=0.10618617100000001 bus1=31109202013.2 bus2=31109202014.2 switch=n enabled=y phases=1 Linecode=1P_OH_Code0

New Line.oh_5207633-2 Units=km Length=0.106941913 bus1=421160_11_164362_335.1.2.3 bus2=31108202019.1.2.3 switch=n enabled=y phases=3 Linecode=3P_OH_Code1

New Line.oh_14847564 Units=km Length=0.12932338300000001 bus1=30908202507.2 bus2=421565_769_167784_799.2 switch=n enabled=y phases=1 Linecode=1P_OH_Code7

New Line.oh_14847891-6 Units=km Length=0.18969817900000002 bus1=30908202531_15050139.1.2.3 bus2=30908202061.1.2.3 switch=n enabled=y phases=3 Linecode=3P_OH_Code1

New Line.oh_5245108 Units=km Length=0.065000002 bus1=31109202009.1.2.3 bus2=31109402003.1.2.3 switch=n enabled=y phases=3 Linecode=3P_OH_Code8

New Line.oh_5207073-1 Units=km Length=0.08564671900000001 bus1=31108302505.1.2.3 bus2=31108302513_5446149.1.2.3 switch=n enabled=y phases=3 Linecode=3P_OH_Code1

New Line.oh_5186309-6 Units=km Length=0.132020946 bus1=31007102509.1.2.3 bus2=31007102501.1.2.3 switch=n enabled=y phases=3 Linecode=3P_OH_Code1

New Line.oh_5776531 Units=km Length=0.129189686 bus1=31109102006.1.2.3 bus2=419216_849_164897_781.1.2.3 switch=n enabled=y phases=3 Linecode=OVR_800_21859_3

New Line.oh_14846920-1 Units=km Length=0.138332691 bus1=30907102002.1.2.3 bus2=30907102001.1.2.3 switch=n enabled=y phases=3 Linecode=3P_OH_Code1

New Line.oh_5222536 Units=km Length=0.020640237 bus1=31109102011.1.2.3 bus2=419373_719_164762_838.1.2.3 switch=n enabled=y phases=3 Linecode=3P_OH_Code2

New Line.oh_5222543-1 Units=km Length=0.129326215 bus1=419399_71_164703_621.1.2.3 bus2=419415_531_164667_469.1.2.3 switch=n enabled=y phases=3 Linecode=3P_OH_Code2

New Line.oh_14847840 Units=km Length=0.159813207 bus1=30908202507.1.2.3 bus2=421538_642_167846_227.1.2.3 switch=n enabled=y phases=3 Linecode=3P_OH_Code2

New Line.oh_5207761-2 Units=km Length=0.156031636 bus1=420413_611_163883_34.1.2.3 bus2=31108302501.1.2.3 switch=n enabled=y phases=3 Linecode=3P_OH_Code1

New Line.oh_14855946 Units=km Length=0.11179336000000001 bus1=30808402001.1.2.3 bus2=30808402043.1.2.3 switch=n enabled=y phases=3 Linecode=3P_OH_Code1

New Line.oh_5243444 Units=km Length=0.001 bus1=422499_219_166723_104.1.2.3 bus2=422499_132_166723_548.1.2.3 switch=n enabled=y phases=3 Linecode=3P_OH_Code1

New Line.oh_14845476 Units=km Length=0.252017426 bus1=30808402501.3 bus2=421227_078_168290_554.3 switch=n enabled=y phases=1 Linecode=1P_OH_Code0

New Line.oh_5207775-2 Units=km Length=0.084119707 bus1=31108302505.1.2.3 bus2=420830_865_163732_785.1.2.3 switch=n enabled=y phases=3 Linecode=3P_OH_Code1

New Line.oh_14847450 Units=km Length=0.08174853 bus1=30907102517.1.2.3 bus2=30907102513_15050063.1.2.3 switch=n enabled=y phases=3 Linecode=3P_OH_Code1

New Line.oh_24047080 Units=km Length=0.15000031000000003 bus1=30908202060.2 bus2=421466_633_167604_351.2 switch=n enabled=y phases=1 Linecode=1P_OH_Code0

New Line.oh_5244023 Units=km Length=0.16500000499999998 bus1=420486_006_163868_874.1.2.3 bus2=420532_809_163855_896.1.2.3 switch=n enabled=y phases=3 Linecode=3P_OH_Code1

New Line.oh_5186556 Units=km Length=0.07659482199999999 bus1=422453_086_166353_848.1.2.3 bus2=422459_418_166376_291.1.2.3 switch=n enabled=y phases=3 Linecode=3P_OH_Code1

New Line.oh_5204473 Units=km Length=0.185161873 bus1=31008402000.1 bus2=421753_808_165427_468.1 switch=n enabled=y phases=1 Linecode=K_65_13.8KV_1

New Fuse.Fuse_oh_5204473 monitoredobj=Line.oh_5204473 enabled=y ratedcurrent=10000.0

New Line.oh_5222820 Units=km Length=0.144154453 bus1=31109202018.1.2.3 bus2=31109202504.1.2.3 switch=n enabled=y phases=3 Linecode=3P_OH_Code1

New Line.oh_5185275-8 Units=km Length=0.172333434 bus1=30907302007.1.2.3 bus2=422528_628_166834_98.1.2.3 switch=n enabled=y phases=3 Linecode=3P_OH_Code1

New Line.oh_14847891 Units=km Length=0.25559201600000003 bus1=421594_518_167982_929.1.2.3 bus2=30908202531_15050139.1.2.3 switch=n enabled=y phases=3 Linecode=3P_OH_Code1

New Line.oh_38212343-1 Units=km Length=0.181221623 bus1=31109202012.2 bus2=419977_014_164578_172.2 switch=n enabled=y phases=1 Linecode=1P_OH_Code0

New Line.oh_5185251 Units=km Length=0.127517888 bus1=30907302003.1.2.3 bus2=422537_995_167276_625.1.2.3 switch=n enabled=y phases=3 Linecode=OVR_800_21859_3_9

New Line.oh_5222987-3 Units=km Length=0.15960134 bus1=419464_822_164413_811.2 bus2=419442_617_164374_569.2 switch=n enabled=y phases=1 Linecode=1P_OH_Code3

New Line.oh_5186309-4 Units=km Length=0.121067494 bus1=422060_005_165933_325.1.2.3 bus2=31007102507.1.2.3 switch=n enabled=y phases=3 Linecode=3P_OH_Code1

New Line.oh_5245115 Units=km Length=0.110167467 bus1=30907302014.1.2.3 bus2=30907302007.1.2.3 switch=n enabled=y phases=3 Linecode=3P_OH_Code1

New Line.oh_5204434 Units=km Length=0.13799008599999998 bus1=421730_805_165211_926.1.2.3 bus2=31008402007_5445974.1.2.3 switch=y enabled=y phases=3 Linecode=11825_3

New Line.oh_14846920-3 Units=km Length=0.139613574 bus1=422366_393_167668_464.1.2.3 bus2=30907102018.1.2.3 switch=n enabled=y phases=3 Linecode=3P_OH_Code1

New Line.oh_5222592 Units=km Length=0.11523392800000001 bus1=419492_464_164527_003.1.2.3 bus2=31109202501.1.2.3 switch=n enabled=y phases=3 Linecode=3P_OH_Code1

New Line.oh_5208114 Units=km Length=0.072077076 bus1=31109102509.3 bus2=31109102569.3 switch=n enabled=y phases=1 Linecode=1P_OH_Code0

New Line.oh_5186457-4 Units=km Length=0.194495915 bus1=422045_915_165841_587.2 bus2=422095_27_165808_754.2 switch=n enabled=y phases=1 Linecode=1P_OH_Code0

New Line.oh_5206974 Units=km Length=0.420054715 bus1=420722_35_164233_84.3 bus2=420619_283_164309_615.3 switch=n enabled=y phases=1 Linecode=1P_OH_Code3

New Line.oh_5185275 Units=km Length=0.227247189 bus1=30907302505.1.2.3 bus2=422549_348_167023_21.1.2.3 switch=n enabled=y phases=3 Linecode=3P_OH_Code1

New Line.oh_5222785-1 Units=km Length=0.278722807 bus1=419757_023_164369_91.1.2.3 bus2=419831_209_164328_577.1.2.3 switch=n enabled=y phases=3 Linecode=3P_OH_Code1

New Line.oh_5222258-2 Units=km Length=0.336634588 bus1=31109102512.1.2.3 bus2=419250_55_164795_397.1.2.3 switch=n enabled=y phases=3 Linecode=3P_OH_Code1

New Line.oh_5222778 Units=km Length=0.10369130300000001 bus1=31109202101_5445652.1.2.3 bus2=31109202502.1.2.3 switch=y enabled=y phases=3 Linecode=11825_3

New Line.oh_5222735 Units=km Length=0.150042072 bus1=31109202008.1.2.3 bus2=31109202018.1.2.3 switch=n enabled=y phases=3 Linecode=3P_OH_Code1

New Line.oh_14847824 Units=km Length=0.12257607000000001 bus1=421620_334_167800_823.1.2.3 bus2=TIEPOINT_30908202042.1.2.3 switch=n enabled=y phases=3 Linecode=VSA_600_21398_3

New Line.oh_5207246 Units=km Length=0.12000000400000001 bus1=421548_718_164979_517.1.2.3 bus2=421577_639_165024_002.1.2.3 switch=n enabled=y phases=3 Linecode=3P_OH_Code1

New Line.oh_5207633-6 Units=km Length=0.128666152 bus1=31108302517.1.2.3 bus2=420918_499_164199_499.1.2.3 switch=n enabled=y phases=3 Linecode=3P_OH_Code1

New Line.oh_14847539 Units=km Length=0.061554467 bus1=30908202061.2 bus2=421494_024_168080_237.2 switch=n enabled=y phases=1 Linecode=K_65_13.8KV_1

New Fuse.Fuse_oh_14847539 monitoredobj=Line.oh_14847539 enabled=y ratedcurrent=10000.0

New Line.oh_5204357-4 Units=km Length=0.165239733 bus1=31008402000.1.2.3 bus2=421816_696_165439_965.1.2.3 switch=n enabled=y phases=3 Linecode=3P_OH_Code1

New Line.oh_5222633 Units=km Length=0.102038028 bus1=31109102015_37293758.1.2.3 bus2=31109102523.1.2.3 switch=y enabled=y phases=3 Linecode=21898_3

New Line.oh_5185275-3 Units=km Length=0.227520847 bus1=422552_036_166929_41.1.2.3 bus2=30907302505.1.2.3 switch=n enabled=y phases=3 Linecode=3P_OH_Code1

New Line.oh_5222813 Units=km Length=0.11985670000000001 bus1=419831_209_164328_577.1.2.3 bus2=31109202008.1.2.3 switch=n enabled=y phases=3 Linecode=3P_OH_Code1

New Line.oh_5185181 Units=km Length=0.09799672200000001 bus1=30907302507.3 bus2=30907302514.3 switch=n enabled=y phases=1 Linecode=1P_OH_Code0

New Line.oh_14847955-3 Units=km Length=0.13917946 bus1=30808402543.1.2.3 bus2=30808402501.1.2.3 switch=n enabled=y phases=3 Linecode=3P_OH_Code1

New Line.oh_5204404-2 Units=km Length=0.10780851699999999 bus1=31008402007_5445974.1.2.3 bus2=31008402006.1.2.3 switch=n enabled=y phases=3 Linecode=3P_OH_Code1

New Line.oh_5207263-4 Units=km Length=0.159206242 bus1=421256_447_164508_356.1.2.3 bus2=421282_182_164549_5.1.2.3 switch=n enabled=y phases=3 Linecode=3P_OH_Code1

New Line.oh_5186978 Units=km Length=0.141753741 bus1=31008402005.1.2.3 bus2=421711_098_165180_565.1.2.3 switch=n enabled=y phases=3 Linecode=3P_OH_Code1

New Line.oh_5222839-6 Units=km Length=0.167244638 bus1=31109202009.1.2.3 bus2=31109402101.1.2.3 switch=n enabled=y phases=3 Linecode=3P_OH_Code1

New Line.oh_5222785-3 Units=km Length=0.144882757 bus1=31109202502.1.2.3 bus2=419717_552_164391_015.1.2.3 switch=n enabled=y phases=3 Linecode=3P_OH_Code1

New Line.oh_5207500 Units=km Length=0.118012592 bus1=420302_483_163932_788.1.2.3 bus2=420343_774_163911_357.1.2.3 switch=n enabled=y phases=3 Linecode=3P_OH_Code1

New Line.oh_5186453 Units=km Length=0.146568669 bus1=31007102501.2 bus2=422045_915_165841_587.2 switch=n enabled=y phases=1 Linecode=K_65_13.8KV_1

New Fuse.Fuse_oh_5186453 monitoredobj=Line.oh_5186453 enabled=y ratedcurrent=10000.0

New Line.oh_5204477 Units=km Length=0.39784981900000005 bus1=421753_808_165427_468.1 bus2=421657_579_165501_139.1 switch=n enabled=y phases=1 Linecode=1P_OH_Code0

New Line.oh_5207633-4 Units=km Length=0.135211835 bus1=31108302507.1.2.3 bus2=420933_417_164115_723.1.2.3 switch=n enabled=y phases=3 Linecode=3P_OH_Code1

New Line.oh_5185275-1 Units=km Length=0.281254346 bus1=30907302506.1.2.3 bus2=TIEPOINT_30907302002.1.2.3 switch=n enabled=y phases=3 Linecode=3P_OH_Code1

New Line.oh_14847955-1 Units=km Length=0.33494978400000003 bus1=421425_744_168183_739.1.2.3 bus2=421357_109_168259_266.1.2.3 switch=n enabled=y phases=3 Linecode=3P_OH_Code1

New Line.oh_5185165 Units=km Length=0.20046068600000003 bus1=30907302506.2 bus2=422486_12_167104_736.2 switch=n enabled=y phases=1 Linecode=K_65_13.8KV_1

New Fuse.Fuse_oh_5185165 monitoredobj=Line.oh_5185165 enabled=y ratedcurrent=10000.0

New Line.oh_5186302 Units=km Length=0.034000000999999995 bus1=31007102011.1.2.3 bus2=31007102009.1.2.3 switch=n enabled=y phases=3 Linecode=3P_OH_Code1

New Line.oh_5206968 Units=km Length=0.206879439 bus1=420871_68_164120_888.3 bus2=420821_527_164159_055.3 switch=n enabled=y phases=1 Linecode=1P_OH_Code3

New Line.oh_5222839-4 Units=km Length=0.241466848 bus1=420043_366_164081_218.1.2.3 bus2=31109402502.1.2.3 switch=n enabled=y phases=3 Linecode=3P_OH_Code1

New Line.oh_5243625 Units=km Length=0.149478765 bus1=421644_878_165121_435.1.2.3 bus2=31008402005.1.2.3 switch=n enabled=y phases=3 Linecode=3P_OH_Code1

New Line.oh_5776566 Units=km Length=0.107195683 bus1=31108202019.2 bus2=31108202502.2 switch=n enabled=y phases=1 Linecode=1P_OH_Code0

New Line.oh_5207675 Units=km Length=0.206733251 bus1=420343_774_163911_357.1.2.3 bus2=420397_599_163890_626.1.2.3 switch=n enabled=y phases=3 Linecode=3P_OH_Code1

New Line.oh_5222592-3 Units=km Length=0.308469669 bus1=31109102516.1.2.3 bus2=419492_464_164527_003.1.2.3 switch=n enabled=y phases=3 Linecode=3P_OH_Code1

New Line.oh_5243344-1 Units=km Length=0.395454511 bus1=31007102013.1.2.3 bus2=31007102014.1.2.3 switch=n enabled=y phases=3 Linecode=3P_OH_Code1

New Line.oh_5206991-1 Units=km Length=0.332303242 bus1=420572_504_164347_348.3 bus2=31108102507.3 switch=n enabled=y phases=1 Linecode=1P_OH_Code0

New Line.oh_5186396 Units=km Length=0.086787965 bus1=31007302044_5445897.1.2.3 bus2=421923_651_165705_919.1.2.3 switch=y enabled=y phases=3 Linecode=21052_3

New Line.oh_5206953 Units=km Length=0.11812249400000001 bus1=420263_025_163947_562.1.2.3 bus2=420302_483_163932_788.1.2.3 switch=n enabled=y phases=3 Linecode=3P_OH_Code1

New Line.oh_5223029-2 Units=km Length=0.091239432 bus1=31109102002.1.2.3 bus2=TIEPOINT_31109102536.1.2.3 switch=n enabled=y phases=3 Linecode=3P_OH_Code1

New Line.oh_14847459 Units=km Length=0.134959004 bus1=422159_023_167727_272.1.2.3 bus2=422118_989_167736_929.1.2.3 switch=n enabled=y phases=3 Linecode=3P_OH_Code1

New Line.oh_14847523 Units=km Length=0.055564703 bus1=30908202512.2 bus2=421646_583_167933_448.2 switch=n enabled=y phases=1 Linecode=1P_OH_Code7

New Line.oh_5186985 Units=km Length=0.019338199 bus1=31008402005.2.3 bus2=31008402004.2.3 switch=n enabled=y phases=2 Linecode=K_100_13.8KV_2

New Fuse.Fuse_oh_5186985 monitoredobj=Line.oh_5186985 enabled=y ratedcurrent=10000.0

New Line.oh_5186567 Units=km Length=0.441112012 bus1=31007102507.3 bus2=421987_561_166033_147.3 switch=n enabled=y phases=1 Linecode=1P_OH_Code0

New Line.oh_5222522 Units=km Length=0.15829373200000002 bus1=31109102509.1.2.3 bus2=31109102015_37293758.1.2.3 switch=n enabled=y phases=3 Linecode=3P_OH_Code2

New Line.oh_5222656 Units=km Length=0.128610828 bus1=31109402101.2 bus2=419980_168_164117_581.2 switch=n enabled=y phases=1 Linecode=K_100_13.8KV_1

New Fuse.Fuse_oh_5222656 monitoredobj=Line.oh_5222656 enabled=y ratedcurrent=10000.0

New Line.oh_5185275-7 Units=km Length=0.21714844500000002 bus1=422528_628_166834_98.1.2.3 bus2=422542_678_166877_539.1.2.3 switch=n enabled=y phases=3 Linecode=3P_OH_Code1

New Line.oh_5208074 Units=km Length=0.09432120100000001 bus1=31109202502.3 bus2=419661_63_164388_544.3 switch=n enabled=y phases=1 Linecode=K_100_13.8KV_1

New Fuse.Fuse_oh_5208074 monitoredobj=Line.oh_5208074 enabled=y ratedcurrent=10000.0

New Line.oh_5186403-2 Units=km Length=0.21120249000000002 bus1=421873_837_165592_213.1.2.3 bus2=421892_563_165633_895.1.2.3 switch=n enabled=y phases=3 Linecode=3P_OH_Code1

New Line.oh_14846975-2 Units=km Length=0.151833811 bus1=30907102506.1.2.3 bus2=30907102003.1.2.3 switch=n enabled=y phases=3 Linecode=3P_OH_Code1

New Line.oh_14847435 Units=km Length=0.115473186 bus1=422591_348_167414_769.1.2.3 bus2=422621_213_167396_204.1.2.3 switch=n enabled=y phases=3 Linecode=3P_OH_Code2

New Line.oh_5222839-2 Units=km Length=0.294264852 bus1=420122_41_164001_156.1.2.3 bus2=420205_399_163967_73.1.2.3 switch=n enabled=y phases=3 Linecode=3P_OH_Code1

New Line.oh_5243344-3 Units=km Length=0.269281583 bus1=422219_583_165982_508.1.2.3 bus2=422278_191_166039_735.1.2.3 switch=n enabled=y phases=3 Linecode=3P_OH_Code1

New Line.oh_5186457 Units=km Length=0.411386073 bus1=31007302000.2 bus2=31007302001.2 switch=n enabled=y phases=1 Linecode=1P_OH_Code0

New Line.oh_5223971 Units=km Length=0.662286429 bus1=420728_044_163283_795.3 bus2=420810_575_163132_589.3 switch=n enabled=y phases=1 Linecode=1P_OH_Code4

New Line.oh_5207298 Units=km Length=0.152000005 bus1=31108302513_5446149.1.2.3 bus2=420866_498_163825_132.1.2.3 switch=y enabled=y phases=3 Linecode=11825_3

New Line.oh_5185168 Units=km Length=0.18761551499999998 bus1=422486_12_167104_736.2 bus2=422429_242_167110_902.2 switch=n enabled=y phases=1 Linecode=1P_OH_Code0

New Line.oh_5207633-8 Units=km Length=0.126043734 bus1=420911_129_164240_444.1.2.3 bus2=31108102506.1.2.3 switch=n enabled=y phases=3 Linecode=3P_OH_Code1

New Line.oh_5207789-1 Units=km Length=0.152241731 bus1=420755_065_163792_089.1.2.3 bus2=420799_199_163774_887.1.2.3 switch=n enabled=y phases=3 Linecode=3P_OH_Code1

New Line.oh_5186281-2 Units=km Length=0.102107316 bus1=422411_83_166213_296.1.2.3 bus2=31007102018.1.2.3 switch=n enabled=y phases=3 Linecode=3P_OH_Code1

New Line.oh_14845428-1 Units=km Length=0.108916385 bus1=30808402043.1.2.3 bus2=30808402002.1.2.3 switch=n enabled=y phases=3 Linecode=3P_OH_Code1

New Line.oh_5243618 Units=km Length=0.138412586 bus1=31108202020.1.2.3 bus2=421548_718_164979_517.1.2.3 switch=n enabled=y phases=3 Linecode=3P_OH_Code1

New Line.oh_29332315 Units=km Length=0.054631537 bus1=31007102018.1.2.3 bus2=422437_17_166237_348.1.2.3 switch=n enabled=y phases=3 Linecode=3P_OH_Code10

New Line.oh_5186597 Units=km Length=0.25442219 bus1=31007102019.1.2.3 bus2=422453_086_166353_848.1.2.3 switch=n enabled=y phases=3 Linecode=3P_OH_Code1

New Line.oh_5207923-1 Units=km Length=0.13128213700000002 bus1=31108302054.1.2.3 bus2=420571_826_163845_007.1.2.3 switch=n enabled=y phases=3 Linecode=3P_OH_Code1

New Line.oh_5204357-2 Units=km Length=0.29694248 bus1=421831_532_165481_969.1.2.3 bus2=421861_122_165564_535.1.2.3 switch=n enabled=y phases=3 Linecode=3P_OH_Code1

New Line.oh_5207972-1 Units=km Length=0.379620947 bus1=421176_373_164390_132.2 bus2=421078_884_164447_488.2 switch=n enabled=y phases=1 Linecode=1P_OH_Code0

New Line.oh_5222827 Units=km Length=0.046445769 bus1=31109202504.1.2 bus2=419933_461_164264_668.1.2 switch=n enabled=y phases=2 Linecode=2P_OH_Code6

New Line.oh_14847876 Units=km Length=0.123837743 bus1=421422_768_167911_411.1 bus2=30908202518.1 switch=n enabled=y phases=1 Linecode=1P_OH_Code0

New Line.oh_38212343-4 Units=km Length=0.114084859 bus1=419973_63_164446_5.2 bus2=31109202013.2 switch=n enabled=y phases=1 Linecode=1P_OH_Code0

New Line.oh_5207263-2 Units=km Length=0.851404712 bus1=31108202503.1.2.3 bus2=31108202022.1.2.3 switch=n enabled=y phases=3 Linecode=3P_OH_Code1

New Line.oh_14847175-2 Units=km Length=0.107744111 bus1=422534_845_167320_578.1.2.3 bus2=422533_887_167353_436.1.2.3 switch=n enabled=y phases=3 Linecode=3P_OH_Code1

New Line.oh_14847891-3 Units=km Length=0.140923768 bus1=421614_495_167944_905.1.2.3 bus2=421594_518_167982_929.1.2.3 switch=n enabled=y phases=3 Linecode=3P_OH_Code1

New Line.oh_14847528 Units=km Length=0.154000005 bus1=30908202029.1.2.3 bus2=30908202512.1.2.3 switch=n enabled=y phases=3 Linecode=3P_OH_Code1

New Line.oh_5186309-3 Units=km Length=0.11623654600000001 bus1=31007102507.1.2.3 bus2=31007102513.1.2.3 switch=n enabled=y phases=3 Linecode=3P_OH_Code1
