New Load.Load_31007300011-l_B_B bus1=31007300011-XFO.2 kV=0.416 model=1 kW=13.989194 kvar=5.6569233552048335 Phases=1

New Load.Load_30908100018-l_C_C bus1=30908100018-XFO.3 kV=0.416 model=1 kW=23.751208 kvar=10.27912769444693 Phases=1

New Load.Load_31109200003-l_A_A bus1=31109200003-XFO.1 kV=0.416 model=1 kW=34.342364 kvar=14.515107565242767 Phases=1

New Load.Load_30908200031-l_A_B_C_A_B_C bus1=30908200031-XFO.3.2.1 kV=0.48 model=1 kW=174.9459 kvar=79.28997851804574 Phases=3

New Load.Load_31108100018-l_C_C bus1=31108100018-XFO.3 kV=0.416 model=1 kW=40.98272 kvar=17.587626724064183 Phases=1

New Load.Load_30907100001-l_A_B_C_B_A_C bus1=30907100001-XFO.3.2.1 kV=0.208 model=1 kW=207.29171399999998 kvar=90.30845571249044 Phases=3

New Load.Load_31109200005-l_A_A bus1=31109200005-XFO.1 kV=0.416 model=1 kW=42.985445 kvar=17.28710695977841 Phases=1

New Load.Load_31108100036-l_B_B bus1=31108100036-XFO.2 kV=0.416 model=1 kW=18.490693 kvar=7.828616177080328 Phases=1

New Load.Load_31007100020-l_C_C bus1=31007100020-XFO.3 kV=0.416 model=1 kW=13.453965 kvar=5.748145887668313 Phases=1

New Load.Load_31108200010-l_B_B bus1=31108200010-XFO.2 kV=0.416 model=1 kW=32.927459999999996 kvar=14.225621390661095 Phases=1

New Load.Load_31007100019-l_A_A bus1=31007100019-XFO.1 kV=0.416 model=1 kW=14.21298 kvar=6.026964100721718 Phases=1

New Load.Load_31007100016-l_A_A bus1=31007100016-XFO.1 kV=0.416 model=1 kW=15.592821 kvar=6.648971742176535 Phases=1

New Load.Load_30907300020-l_B_B bus1=30907300020-XFO.2 kV=0.416 model=1 kW=45.038705 kvar=17.753521220763904 Phases=1

New Load.Load_31108100023-l_C_C bus1=31108100023-XFO.3 kV=0.416 model=1 kW=16.955131 kvar=7.437240358286775 Phases=1

New Load.Load_31108300032-l_B_B bus1=31108300032-XFO.2 kV=0.416 model=1 kW=57.352088 kvar=24.34915607198087 Phases=1

New Load.Load_31108300026-l_A_B_C_A_B_C bus1=31108300026-XFO.3.2.1 kV=0.208 model=1 kW=77.35875 kvar=34.001124292187974 Phases=3

New Load.Load_30908200023-l_A_A bus1=30908200023-XFO.1 kV=0.416 model=1 kW=24.751541 kvar=10.76172604570396 Phases=1

New Load.Load_31109100012-l_C_C bus1=31109100012-XFO.3 kV=0.416 model=1 kW=18.093654000000004 kvar=7.855467861537965 Phases=1

New Load.Load_30908200054-l_A_A bus1=30908200054-XFO.1 kV=0.416 model=1 kW=21.094654000000002 kvar=9.303263397746761 Phases=1

New Load.Load_30907300011-l_A_A bus1=30907300011-XFO.1 kV=0.416 model=1 kW=19.607302 kvar=8.454669806815257 Phases=1

New Load.Load_31008400030-l_C_C bus1=31008400030-XFO.3 kV=0.416 model=1 kW=39.214605 kvar=16.909339980972675 Phases=1

New Load.Load_30908200042-l_B_B bus1=30908200042-XFO.2 kV=0.416 model=1 kW=18.938267 kvar=8.568698517893964 Phases=1

New Load.Load_31108300015-l_A_B_C_A_B_C bus1=31108300015-XFO.3.2.1 kV=0.208 model=1 kW=21.783030000000004 kvar=9.504322787688661 Phases=3

New Load.Load_31109200010-l_C_C bus1=31109200010-XFO.3 kV=0.416 model=1 kW=27.408095999999997 kvar=11.737590709746291 Phases=1

New Load.Load_31108300006-l_A_A bus1=31108300006-XFO.1 kV=0.416 model=1 kW=20.664612 kvar=8.396920564715407 Phases=1

New Load.Load_31008400012-l_A_A bus1=31008400012-XFO.1 kV=0.416 model=1 kW=16.593154000000002 kvar=7.1315700934335675 Phases=1

New Load.Load_31008400023-l_B_B bus1=31008400023-XFO.2 kV=0.416 model=1 kW=27.908262999999998 kvar=11.978890126593656 Phases=1

New Load.Load_31109100031-l_B_B bus1=31109100031-XFO.2 kV=0.416 model=1 kW=11.935934000000001 kvar=5.190509094219338 Phases=1

New Load.Load_31208100006-l_A_A bus1=31208100006-XFO.1 kV=0.416 model=1 kW=30.391565000000003 kvar=13.351647220610511 Phases=1

New Load.Load_30908200013-l_B_B bus1=30908200013-XFO.2 kV=0.416 model=1 kW=17.558425 kvar=7.946690394001445 Phases=1

New Load.Load_31109200004-l_C_C bus1=31109200004-XFO.3 kV=0.416 model=1 kW=38.758267000000004 kvar=16.252388793595536 Phases=1

New Load.Load_30908100017-l_C_C bus1=30908100017-XFO.3 kV=0.416 model=1 kW=17.21398 kvar=7.474759636930514 Phases=1

New Load.Load_31108100031-l_A_B_C_A_B_C bus1=31108100031-XFO.3.2.1 kV=0.208 model=1 kW=26.716629 kvar=11.316641723549044 Phases=3

New Load.Load_31108300031-l_B_B bus1=31108300031-XFO.2 kV=0.416 model=1 kW=48.261433 kvar=20.837074336631588 Phases=1

New Load.Load_31008400005-l_A_A bus1=31008400005-XFO.1 kV=0.416 model=1 kW=15.437100000000001 kvar=6.879603564837799 Phases=1

New Load.Load_31007100011-l_A_B_C_A_B_C bus1=31007100011-XFO.3.2.1 kV=0.48 model=1 kW=236.778837 kvar=97.283333956463 Phases=3

New Load.Load_30808400042-l_A_B_C_A_B_C bus1=30808400042-XFO.3.2.1 kV=0.208 model=1 kW=240.66880500000002 kvar=104.00844212738548 Phases=3

New Load.Load_30808400050-l_C_C bus1=30808400050-XFO.3 kV=0.416 model=1 kW=18.455631 kvar=8.161138126391174 Phases=1

New Load.Load_30808400006-l_C_C bus1=30808400006-XFO.3 kV=0.416 model=1 kW=16.816941 kvar=7.501611206292617 Phases=1

New Load.Load_31108300005-l_B_B bus1=31108300005-XFO.2 kV=0.416 model=1 kW=25.786938 kvar=10.911803297430012 Phases=1

New Load.Load_30908200033-l_A_A bus1=30908200033-XFO.1 kV=0.416 model=1 kW=19.607302 kvar=8.454669806815257 Phases=1

New Load.Load_31109400007-l_A_A bus1=31109400007-XFO.1 kV=0.416 model=1 kW=27.616410000000002 kvar=11.00817596311876 Phases=1

New Load.Load_31008400011-l_B_B bus1=31008400011-XFO.2 kV=0.416 model=1 kW=87.05681999999999 kvar=35.49122434677428 Phases=1

New Load.Load_31008400018-l_B_B bus1=31008400018-XFO.2 kV=0.416 model=1 kW=16.092988000000002 kvar=6.890271159023902 Phases=1

New Load.Load_31007100010-l_A_A bus1=31007100010-XFO.1 kV=0.416 model=1 kW=13.177584000000003 kvar=5.876887216337831 Phases=1

New Load.Load_31109200014-l_A_A bus1=31109200014-XFO.1 kV=0.416 model=1 kW=18.732011 kvar=8.032396430379489 Phases=1

New Load.Load_31109400003-l_C_C bus1=31109400003-XFO.3 kV=0.416 model=1 kW=17.834806 kvar=7.817949065331926 Phases=1

New Load.Load_31108100020-l_B_B bus1=31108100020-XFO.2 kV=0.416 model=1 kW=8.417236 kvar=3.6676751158185974 Phases=1

New Load.Load_31109200028-l_B_B bus1=31109200028-XFO.2 kV=0.416 model=1 kW=44.77985700000001 kvar=17.716002424557864 Phases=1

New Load.Load_30908200032-l_B_B bus1=30908200032-XFO.2 kV=0.416 model=1 kW=25.699281000000003 kvar=11.74310732092726 Phases=1

New Load.Load_31007200005-l_A_A bus1=31007200005-XFO.1 kV=0.416 model=1 kW=19.732344 kvar=8.514994781636522 Phases=1

New Load.Load_30908200067-l_B_B bus1=30908200067-XFO.2 kV=0.416 model=1 kW=17.817275 kvar=7.9842100399873495 Phases=1

New Load.Load_31108300035-l_A_A bus1=31108300035-XFO.1 kV=0.416 model=1 kW=41.430293 kvar=18.32770858244012 Phases=1

New Load.Load_30908200008-l_A_A bus1=30908200008-XFO.1 kV=0.416 model=1 kW=12.798077000000001 kvar=5.73747829348221 Phases=1

New Load.Load_30808300024-l_A_B_C_A_B_C bus1=30808300024-XFO.3.2.1 kV=0.208 model=1 kW=180.936543 kvar=78.55467994759722 Phases=3

New Load.Load_30808400003-l_A_B_C_B_A_C bus1=30808400003-XFO.3.2.1 kV=0.48 model=1 kW=103.602027 kvar=45.5698791443373 Phases=3

New Load.Load_30908300002-l_A_B_C_A_B_C bus1=30908300002-XFO.3.2.1 kV=0.48 model=1 kW=429.6121349999999 kvar=183.8924780183412 Phases=3

New Load.Load_31108300001-l_A_A bus1=31108300001-XFO.1 kV=0.416 model=1 kW=29.408763 kvar=12.702787894698057 Phases=1

New Load.Load_30908200041-l_B_B bus1=30908200041-XFO.2 kV=0.416 model=1 kW=38.291103 kvar=16.94428389423716 Phases=1

New Load.Load_30908200057-l_C_C bus1=30908200057-XFO.3 kV=0.416 model=1 kW=18.334971999999997 kvar=8.059247999741592 Phases=1

New Load.Load_31109200022-l_B_B bus1=31109200022-XFO.2 kV=0.416 model=1 kW=10.711813000000001 kvar=4.337869147665556 Phases=1

New Load.Load_30908200048-l_B_B bus1=30908200048-XFO.2 kV=0.416 model=1 kW=64.47302 kvar=29.094951606667212 Phases=1

New Load.Load_30908200006-l_A_A bus1=30908200006-XFO.1 kV=0.416 model=1 kW=26.752208 kvar=11.726923230655725 Phases=1

New Load.Load_30908400032-l_A_B_C_A_B_C bus1=30908400032-XFO.3.2.1 kV=0.48 model=1 kW=192.28465500000001 kvar=84.33519449824632 Phases=3

New Load.Load_30808400007-l_C_C bus1=30808400007-XFO.3 kV=0.416 model=1 kW=9.917736000000001 kvar=4.391572883922995 Phases=1

New Load.Load_30907100021-l_A_A bus1=30907100021-XFO.1 kV=0.416 model=1 kW=5.657554 kvar=2.423659832908962 Phases=1

New Load.Load_31108300004-l_A_A bus1=31108300004-XFO.1 kV=0.416 model=1 kW=18.334971999999997 kvar=8.059247999741592 Phases=1

New Load.Load_31108200009-l_C_C bus1=31108200009-XFO.3 kV=0.416 model=1 kW=24.85467 kvar=11.029877514351128 Phases=1

New Load.Load_31108300029-l_C_C bus1=31108300029-XFO.3 kV=0.416 model=1 kW=49.623742 kvar=21.625342585399668 Phases=1

New Load.Load_30808400038-l_A_A bus1=30808400038-XFO.1 kV=0.416 model=1 kW=19.607302 kvar=8.454669806815257 Phases=1

New Load.Load_30908200047-l_A_B_C_A_B_C bus1=30908200047-XFO.3.2.1 kV=0.48 model=1 kW=124.86117000000002 kvar=54.55938138064156 Phases=3

New Load.Load_31108100019-l_C_C bus1=31108100019-XFO.3 kV=0.416 model=1 kW=26.010724000000003 kvar=11.281844042946895 Phases=1

New Load.Load_30908400027-l_B_B bus1=30908400027-XFO.2 kV=0.416 model=1 kW=48.037646 kvar=20.467033223772546 Phases=1

New Load.Load_30907300029-l_A_B_C_A_B_C bus1=30907300029-XFO.3.2.1 kV=0.208 model=1 kW=122.19326100000002 kvar=49.95262806066407 Phases=3

New Load.Load_31109400001-l_C_C bus1=31109400001-XFO.3 kV=0.416 model=1 kW=46.69492600000001 kvar=18.24678716620704 Phases=1

New Load.Load_31109200011-l_A_B_C_C_A_B bus1=31109200011-XFO.3.2.1 kV=0.48 model=1 kW=439.452039 kvar=198.99169538184807 Phases=3

New Load.Load_30907100009-l_A_A bus1=30907100009-XFO.1 kV=0.416 model=1 kW=5.278047000000001 kvar=2.284250910053342 Phases=1

New Load.Load_30907300001-l_B_B bus1=30907300001-XFO.2 kV=0.416 model=1 kW=3.639356 kvar=1.6247236226126212 Phases=1

New Load.Load_31108100014-l_A_A bus1=31108100014-XFO.1 kV=0.416 model=1 kW=7.8429210000000005 kvar=3.381868042232749 Phases=1

New Load.Load_31108300024-l_A_B_C_A_B_C bus1=31108300024-XFO.3.2.1 kV=0.208 model=1 kW=81.342555 kvar=36.097780486526794 Phases=3

New Load.Load_30907300018-l_B_B bus1=30907300018-XFO.2 kV=0.416 model=1 kW=11.935934000000001 kvar=5.190509094219338 Phases=1

New Load.Load_30907300017-l_A_A bus1=30907300017-XFO.1 kV=0.416 model=1 kW=9.176251 kvar=3.946493328872003 Phases=1

New Load.Load_30908200003-l_A_A bus1=30908200003-XFO.1 kV=0.416 model=1 kW=12.694949000000001 kvar=5.469327307272742 Phases=1

New Load.Load_31109200025-l_B_B bus1=31109200025-XFO.2 kV=0.416 model=1 kW=24.034295 kvar=11.33297204648292 Phases=1

New Load.Load_31007100002-l_A_A bus1=31007100002-XFO.1 kV=0.416 model=1 kW=20.835806 kvar=9.265744601540723 Phases=1

New Load.Load_31007100015-l_C_C bus1=31007100015-XFO.3 kV=0.416 model=1 kW=13.212647 kvar=5.544365749464685 Phases=1

New Load.Load_31008400009-l_B_B bus1=31008400009-XFO.2 kV=0.416 model=1 kW=17.490360000000003 kvar=7.346017825823296 Phases=1

New Load.Load_31109100011-l_B_B bus1=31109100011-XFO.2 kV=0.416 model=1 kW=25.648747 kvar=10.97617377809369 Phases=1

New Load.Load_31007100022-l_A_B_C_A_B_C bus1=31007100022-XFO.3.2.1 kV=0.48 model=1 kW=262.72872899999993 kvar=114.1268253432624 Phases=3

New Load.Load_31108100038-l_B_B bus1=31108100038-XFO.2 kV=0.416 model=1 kW=32.721204 kvar=13.689319303146624 Phases=1

New Load.Load_30908100016-l_C_C bus1=30908100016-XFO.3 kV=0.416 model=1 kW=24.510224 kvar=10.557946274842498 Phases=1

New Load.Load_31007100018-l_A_B_C_A_B_C bus1=31007100018-XFO.3.2.1 kV=0.48 model=1 kW=28.84053 kvar=11.860815312139307 Phases=3

New Load.Load_31108300037-l_A_B_C_A_B_C bus1=31108300037-XFO.3.2.1 kV=0.48 model=1 kW=85.385655 kvar=38.87823762294959 Phases=3

New Load.Load_31208100308-l_C_C bus1=31208100308-XFO.3 kV=0.416 model=1 kW=19.607302 kvar=8.454669806815257 Phases=1

New Load.Load_31109100014-l_A_A bus1=31109100014-XFO.1 kV=0.416 model=1 kW=33.824666 kvar=14.440069123050824 Phases=1

New Load.Load_30908200045-l_A_B_C_A_B_C bus1=30908200045-XFO.3.2.1 kV=0.48 model=1 kW=327.00373199999996 kvar=137.62261032743336 Phases=3

New Load.Load_31108100037-l_C_C bus1=31108100037-XFO.3 kV=0.416 model=1 kW=41.327164999999994 kvar=18.059557481135112 Phases=1

New Load.Load_31007100009-l_C_C bus1=31007100009-XFO.3 kV=0.416 model=1 kW=15.954798 kvar=6.954642007029743 Phases=1

New Load.Load_30908200055-l_A_A bus1=30908200055-XFO.1 kV=0.416 model=1 kW=10.038395000000001 kvar=4.493463010572577 Phases=1

New Load.Load_31108200006-l_C_C bus1=31108200006-XFO.3 kV=0.416 model=1 kW=0.8796750000000001 kvar=0.380708707045151 Phases=1

New Load.Load_30908200011-l_B_B bus1=30908200011-XFO.2 kV=0.416 model=1 kW=31.374367000000003 kvar=14.000506546522965 Phases=1

New Load.Load_31007100021-l_B_B bus1=31007100021-XFO.2 kV=0.416 model=1 kW=10.918069 kvar=4.874171235180027 Phases=1

New Load.Load_30908200065-l_B_B bus1=30908200065-XFO.2 kV=0.416 model=1 kW=26.510891 kvar=11.523143459794262 Phases=1

New Load.Load_30907300028-l_A_B_C_A_B_C bus1=30907300028-XFO.3.2.1 kV=0.208 model=1 kW=246.272709 kvar=96.97141497429725 Phases=3

New Load.Load_31109200015-l_B_B bus1=31109200015-XFO.2 kV=0.416 model=1 kW=11.435767 kvar=4.949209677371971 Phases=1

New Load.Load_30907300006-l_B_B bus1=30907300006-XFO.2 kV=0.416 model=1 kW=21.888732 kvar=9.249560028831485 Phases=1

New Load.Load_31008400022-l_B_B bus1=31008400022-XFO.2 kV=0.416 model=1 kW=32.789271 kvar=14.289992721104637 Phases=1

New Load.Load_30907300010-l_C_C bus1=30907300010-XFO.3 kV=0.416 model=1 kW=14.574957000000001 kvar=6.3326343655749255 Phases=1

New Load.Load_30908300001-l_A_B_C_A_B_C bus1=30908300001-XFO.3.2.1 kV=0.48 model=1 kW=112.28894100000002 kvar=47.926228582998434 Phases=3

New Load.Load_30908200043-l_B_B bus1=30908200043-XFO.2 kV=0.416 model=1 kW=22.456964 kvar=10.091532013857 Phases=1

New Load.Load_31108300038-l_A_B_C_A_B_C bus1=31108300038-XFO.3.2.1 kV=0.208 model=1 kW=485.766342 kvar=185.95494584404514 Phases=3

New Load.Load_30907100023-l_C_C bus1=30907100023-XFO.3 kV=0.416 model=1 kW=19.607302 kvar=8.454669806815257 Phases=1

New Load.Load_31108100026-l_C_C bus1=31108100026-XFO.3 kV=0.416 model=1 kW=39.914320999999994 kvar=16.5043553221913 Phases=1

New Load.Load_30908200036-l_A_B_C_A_B_C bus1=30908200036-XFO.3.2.1 kV=0.208 model=1 kW=58.821906000000006 kvar=25.364009420445772 Phases=3

New Load.Load_31108100012-l_B_B bus1=31108100012-XFO.2 kV=0.416 model=1 kW=12.177251 kvar=5.3942888650807985 Phases=1

New Load.Load_31108200011-l_B_B bus1=31108200011-XFO.2 kV=0.416 model=1 kW=17.714146 kvar=7.716058571340181 Phases=1

New Load.Load_30908200037-l_A_B_C_A_B_C bus1=30908200037-XFO.3.2.1 kV=0.208 model=1 kW=36.430949999999996 kvar=17.138867176251082 Phases=3

New Load.Load_30907300026-l_A_B_C_A_B_C bus1=30907300026-XFO.3.2.1 kV=0.48 model=1 kW=870.1753980000001 kvar=394.7769785585158 Phases=3

New Load.Load_31108100011-l_B_B bus1=31108100011-XFO.2 kV=0.416 model=1 kW=18.111185000000003 kvar=7.689206886882543 Phases=1

New Load.Load_31108300033-l_B_B bus1=31108300033-XFO.2 kV=0.416 model=1 kW=48.934852 kvar=20.681480956162268 Phases=1

New Load.Load_30907100006-l_C_C bus1=30907100006-XFO.3 kV=0.416 model=1 kW=16.852004 kvar=7.169089739419471 Phases=1

New Load.Load_30908200028-l_A_A bus1=30908200028-XFO.1 kV=0.416 model=1 kW=20.438767 kvar=9.292596285998359 Phases=1

New Load.Load_30908200020-l_B_B bus1=30908200020-XFO.2 kV=0.416 model=1 kW=12.074124 kvar=5.126138246213495 Phases=1

New Load.Load_31109100023-l_A_B_C_A_B_C bus1=31109100023-XFO.3.2.1 kV=0.24 model=1 kW=226.68066900000005 kvar=108.3109889343907 Phases=3

New Load.Load_31108300013-l_A_A bus1=31108300013-XFO.1 kV=0.416 model=1 kW=7.037395 kvar=3.0456674743637797 Phases=1

New Load.Load_31108300020-l_A_B_C_A_B_C bus1=31108300020-XFO.3.2.1 kV=0.208 model=1 kW=52.72786799999999 kvar=23.34128825803807 Phases=3

New Load.Load_30908200051-l_A_A bus1=30908200051-XFO.1 kV=0.416 model=1 kW=26.199447999999997 kvar=11.984406737774625 Phases=1

New Load.Load_30908200059-l_A_A bus1=30908200059-XFO.1 kV=0.416 model=1 kW=21.715479 kvar=9.646452458806008 Phases=1

New Load.Load_31108100025-l_C_C bus1=31108100025-XFO.3 kV=0.416 model=1 kW=19.594154000000003 kvar=8.579365629642366 Phases=1

New Load.Load_30907300009-l_B_B bus1=30907300009-XFO.2 kV=0.416 model=1 kW=20.250041999999997 kvar=8.590033223828465 Phases=1

New Load.Load_31108200002-l_B_B bus1=31108200002-XFO.2 kV=0.416 model=1 kW=17.611019 kvar=7.447907952472877 Phases=1

New Load.Load_31109200007-l_B_B bus1=31109200007-XFO.2 kV=0.416 model=1 kW=12.056592 kvar=5.292398738431218 Phases=1

New Load.Load_30808400005-l_C_C bus1=30808400005-XFO.3 kV=0.416 model=1 kW=19.594154000000003 kvar=8.579365629642366 Phases=1

New Load.Load_31007100005-l_C_C bus1=31007100005-XFO.3 kV=0.416 model=1 kW=17.093321000000003 kvar=7.3728695102809345 Phases=1

New Load.Load_30907300012-l_A_A bus1=30907300012-XFO.1 kV=0.416 model=1 kW=15.053208999999999 kvar=6.781759426468328 Phases=1

New Load.Load_30907100020-l_A_A bus1=30907100020-XFO.1 kV=0.416 model=1 kW=1.7593490000000003 kvar=0.7614169316526024 Phases=1

New Load.Load_30907300023-l_A_B_C_A_B_C bus1=30907300023-XFO.3.2.1 kV=0.48 model=1 kW=392.1460530000001 kvar=169.09340125703986 Phases=3

New Load.Load_31109100013-l_A_B_C_B_A_C bus1=31109100013-XFO.3.2.1 kV=0.208 model=1 kW=34.533411 kvar=16.44182109260432 Phases=3

New Load.Load_31109200021-l_B_B bus1=31109200021-XFO.2 kV=0.416 model=1 kW=18.352504 kvar=7.892987507523869 Phases=1

New Load.Load_30908200007-l_A_A bus1=30908200007-XFO.1 kV=0.416 model=1 kW=47.79426899999999 kvar=21.52896943727322 Phases=1

New Load.Load_31008400020-l_C_C bus1=31008400020-XFO.3 kV=0.416 model=1 kW=38.705673000000004 kvar=16.75117135021964 Phases=1

New Load.Load_31109200024-l_B_B bus1=31109200024-XFO.2 kV=0.416 model=1 kW=9.917736000000001 kvar=4.391572883922995 Phases=1

New Load.Load_30908200052-l_A_A bus1=30908200052-XFO.1 kV=0.416 model=1 kW=34.893065 kvar=15.523340524923704 Phases=1

New Load.Load_31008400004-l_A_A bus1=31008400004-XFO.1 kV=0.416 model=1 kW=15.57529 kvar=6.815232716831958 Phases=1

New Load.Load_31108200004-l_A_A bus1=31108200004-XFO.1 kV=0.416 model=1 kW=3.921461 kvar=1.6909342047874572 Phases=1

New Load.Load_31007100012-l_B_B bus1=31007100012-XFO.2 kV=0.416 model=1 kW=21.094654000000002 kvar=9.303263397746761 Phases=1

New Load.Load_31008400006-l_A_A bus1=31008400006-XFO.1 kV=0.416 model=1 kW=10.935601 kvar=4.707910742962305 Phases=1

New Load.Load_30808400008-l_A_B_C_A_B_C bus1=30808400008-XFO.3.2.1 kV=0.48 model=1 kW=697.792164 kvar=299.9066619567779 Phases=3

New Load.Load_31108100015-l_C_C bus1=31108100015-XFO.3 kV=0.416 model=1 kW=39.102712 kvar=16.724319665762 Phases=1

New Load.Load_31208100301-l_C_C bus1=31208100301-XFO.3 kV=0.416 model=1 kW=55.044096999999994 kvar=21.313789713847488 Phases=1

New Load.Load_30908200030-l_A_B_C_A_B_C bus1=30908200030-XFO.3.2.1 kV=0.48 model=1 kW=81.44568000000001 kvar=36.36593014051869 Phases=3

New Load.Load_30907100016-l_A_A bus1=30907100016-XFO.1 kV=0.416 model=1 kW=19.607302 kvar=8.454669806815257 Phases=1

New Load.Load_31108200007-l_C_C bus1=31108200007-XFO.3 kV=0.416 model=1 kW=16.972662 kvar=7.270979383631353 Phases=1

New Load.Load_30907400035-l_A_B_C_A_B_C bus1=30907400035-XFO.3.2.1 kV=0.48 model=1 kW=1222.738107 kvar=524.2881272349554 Phases=3

New Load.Load_31108300025-l_A_B_C_A_B_C bus1=31108300025-XFO.3.2.1 kV=0.208 model=1 kW=64.40495700000001 kvar=28.49427988826893 Phases=3

New Load.Load_31108300011-l_A_B_C_A_B_C bus1=31108300011-XFO.3.2.1 kV=0.208 model=1 kW=36.430949999999996 kvar=17.138867176251082 Phases=3

New Load.Load_31108200003-l_C_C bus1=31108200003-XFO.3 kV=0.416 model=1 kW=14.281046 kvar=6.6276370362420325 Phases=1

New Load.Load_30907100005-l_A_A bus1=30907100005-XFO.1 kV=0.416 model=1 kW=31.927127000000002 kvar=13.743023039404063 Phases=1

New Load.Load_30908300021-l_A_B_C_A_B_C bus1=30908300021-XFO.3.2.1 kV=0.48 model=1 kW=522.8112600000001 kvar=242.13386289189174 Phases=3

New Load.Load_31109100006-l_C_C bus1=31109100006-XFO.3 kV=0.416 model=1 kW=19.607302 kvar=8.454669806815257 Phases=1

New Load.Load_31007300010-l_B_B bus1=31007300010-XFO.2 kV=0.416 model=1 kW=19.607302 kvar=8.454669806815257 Phases=1

New Load.Load_31109400002-l_B_B bus1=31109400002-XFO.2 kV=0.416 model=1 kW=18.593821000000005 kvar=8.096767278385332 Phases=1

New Load.Load_31007100001-l_C_C bus1=31007100001-XFO.3 kV=0.416 model=1 kW=25.648747 kvar=10.97617377809369 Phases=1

New Load.Load_30907300025-l_A_B_C_A_B_C bus1=30907300025-XFO.3.2.1 kV=0.48 model=1 kW=181.018023 kvar=81.52052532449949 Phases=3

New Load.Load_31109400005-l_B_B bus1=31109400005-XFO.2 kV=0.416 model=1 kW=11.418235999999998 kvar=5.115470652027393 Phases=1

New Load.Load_30908400033-l_A_A bus1=30908400033-XFO.1 kV=0.416 model=1 kW=3.518698 kvar=1.5228339784007396 Phases=1

New Load.Load_31008400008-l_A_A bus1=31008400008-XFO.1 kV=0.416 model=1 kW=19.607302 kvar=8.454669806815257 Phases=1

New Load.Load_31108300023-l_A_B_C_A_B_C bus1=31108300023-XFO.3.2.1 kV=0.208 model=1 kW=78.859251 kvar=34.72502254273007 Phases=3

New Load.Load_31008400019-l_C_C bus1=31008400019-XFO.3 kV=0.416 model=1 kW=34.928127 kvar=15.190818575612859 Phases=1

New Load.Load_31109200027-l_B_B bus1=31109200027-XFO.2 kV=0.416 model=1 kW=17.955464 kvar=7.919838709543806 Phases=1

New Load.Load_30907100014-l_C_C bus1=30907100014-XFO.3 kV=0.416 model=1 kW=17.110851999999998 kvar=7.20660853562551 Phases=1

New Load.Load_31007100008-l_C_C bus1=31007100008-XFO.3 kV=0.416 model=1 kW=15.592821 kvar=6.648971742176535 Phases=1

New Load.Load_30908200046-l_A_B_C_A_B_C bus1=30908200046-XFO.3.2.1 kV=0.48 model=1 kW=129.65658 kvar=56.436071416754416 Phases=3

New Load.Load_31108200008-l_C_C bus1=31108200008-XFO.3 kV=0.416 model=1 kW=29.51189 kvar=12.97093851356536 Phases=1

New Load.Load_31108300027-l_A_B_C_A_B_C bus1=31108300027-XFO.3.2.1 kV=0.208 model=1 kW=78.462213 kvar=34.75187436433882 Phases=3

New Load.Load_30808400001-l_A_B_C_A_B_C bus1=30808400001-XFO.3.2.1 kV=0.208 model=1 kW=117.64381499999998 kvar=50.72801994291803 Phases=3

New Load.Load_30907100019-l_A_B_C_A_B_C bus1=30907100019-XFO.3.2.1 kV=0.208 model=1 kW=70.755519 kvar=29.330368301720075 Phases=3

New Load.Load_31109100010-l_B_B bus1=31109100010-XFO.2 kV=0.416 model=1 kW=35.136441 kvar=14.461403828985327 Phases=1

New Load.Load_31109200023-l_B_B bus1=31109200023-XFO.2 kV=0.416 model=1 kW=17.334639 kvar=7.57664964848456 Phases=1

New Load.Load_30908200012-l_B_B bus1=30908200012-XFO.2 kV=0.416 model=1 kW=40.05045200000001 kvar=17.705700940985302 Phases=1

New Load.Load_30908200061-l_B_B bus1=30908200061-XFO.2 kV=0.416 model=1 kW=17.955464 kvar=7.919838709543806 Phases=1

New Load.Load_30908200029-l_A_A bus1=30908200029-XFO.1 kV=0.416 model=1 kW=14.057259000000002 kvar=6.257595923382983 Phases=1

New Load.Load_30908200024-l_A_A bus1=30908200024-XFO.1 kV=0.416 model=1 kW=39.877199999999995 kvar=18.102593738301987 Phases=1

New Load.Load_31109200008-l_B_B bus1=31109200008-XFO.2 kV=0.416 model=1 kW=11.056259 kvar=4.809800387174186 Phases=1

New Load.Load_31108300030-l_C_C bus1=31108300030-XFO.3 kV=0.416 model=1 kW=54.160304000000004 kvar=23.464513940402018 Phases=1

New Load.Load_31109200026-l_B_B bus1=31109200026-XFO.2 kV=0.416 model=1 kW=37.259826 kvar=14.2627745586913 Phases=1

New Load.Load_30908200002-l_B_B bus1=30908200002-XFO.2 kV=0.416 model=1 kW=30.891732 kvar=13.592946637457876 Phases=1

New Load.Load_31109200006-l_B_B bus1=31109200006-XFO.2 kV=0.416 model=1 kW=14.057259000000002 kvar=6.257595923382983 Phases=1

New Load.Load_31109200013-l_A_A bus1=31109200013-XFO.1 kV=0.416 model=1 kW=8.796744 kvar=3.807084406016383 Phases=1

New Load.Load_30908200056-l_A_A bus1=30908200056-XFO.1 kV=0.416 model=1 kW=23.716146000000002 kvar=10.611649643757774 Phases=1

New Load.Load_31007300001-l_C_C bus1=31007300001-XFO.3 kV=0.416 model=1 kW=67.13575200000001 kvar=26.273666985405562 Phases=1

New Load.Load_30907100022-l_A_B_C_A_B_C bus1=30907100022-XFO.3.2.1 kV=0.48 model=1 kW=148.002642 kvar=65.63634065800198 Phases=3

New Load.Load_31108300034-l_A_B_C_A_B_C bus1=31108300034-XFO.3.2.1 kV=0.208 model=1 kW=40.605534 kvar=18.67236789905806 Phases=3

New Load.Load_30908200053-l_A_A bus1=30908200053-XFO.1 kV=0.416 model=1 kW=26.614018000000005 kvar=11.791294078661567 Phases=1

New Load.Load_30908200025-l_B_B bus1=30908200025-XFO.2 kV=0.416 model=1 kW=17.575955999999998 kvar=7.780429419346022 Phases=1

New Load.Load_31008400021-l_B_B bus1=31008400021-XFO.2 kV=0.416 model=1 kW=25.183643 kvar=10.402352894373177 Phases=1

New Load.Load_31109200029-l_B_B bus1=31109200029-XFO.2 kV=0.416 model=1 kW=35.963522 kvar=15.340894977559044 Phases=1

New Load.Load_30808400040-l_A_B_C_A_B_C bus1=30808400040-XFO.3.2.1 kV=0.208 model=1 kW=155.40639599999997 kvar=68.94611264785742 Phases=3

New Load.Load_31108300039-l_A_A bus1=31108300039-XFO.1 kV=0.416 model=1 kW=85.832701 kvar=34.63858525000036 Phases=1

New Load.Load_30908200062-l_B_B bus1=30908200062-XFO.2 kV=0.416 model=1 kW=31.01239 kvar=13.694836281669758 Phases=1

New Load.Load_31007300002-l_B_B bus1=31007300002-XFO.2 kV=0.416 model=1 kW=3.921461 kvar=1.6909342047874572 Phases=1

New Load.Load_30908200001-l_B_B bus1=30908200001-XFO.2 kV=0.416 model=1 kW=32.633549 kvar=14.520624176423738 Phases=1

New Load.Load_31108300022-l_A_B_C_A_B_C bus1=31108300022-XFO.3.2.1 kV=0.208 model=1 kW=108.164886 kvar=47.15965933612313 Phases=3

New Load.Load_31008400016-l_B_B bus1=31008400016-XFO.2 kV=0.416 model=1 kW=14.454298 kvar=6.230744238925345 Phases=1

New Load.Load_30908200058-l_A_A bus1=30908200058-XFO.1 kV=0.416 model=1 kW=9.400038 kvar=4.316534441731052 Phases=1

New Load.Load_30908200026-l_A_A bus1=30908200026-XFO.1 kV=0.416 model=1 kW=14.316108 kvar=6.295115086931186 Phases=1

New Load.Load_30907100025-l_C_A_B_A_B_C bus1=30907100025-XFO.3.2.1 kV=0.208 model=1 kW=180.504444 kvar=78.91405431605003 Phases=3

New Load.Load_30907300031-l_C_C bus1=30907300031-XFO.3 kV=0.416 model=1 kW=19.607302 kvar=8.454669806815257 Phases=1

New Load.Load_31108200001-l_C_C bus1=31108200001-XFO.3 kV=0.416 model=1 kW=5.813276 kvar=2.193028377589863 Phases=1

New Load.Load_31108300002-l_B_B bus1=31108300002-XFO.2 kV=0.416 model=1 kW=7.65822 kvar=3.3888565354230273 Phases=1

New Load.Load_31007100003-l_C_C bus1=31007100003-XFO.3 kV=0.416 model=1 kW=26.510891 kvar=11.523143459794262 Phases=1

New Load.Load_31108100013-l_A_A bus1=31108100013-XFO.1 kV=0.416 model=1 kW=22.871534 kvar=9.898419354743941 Phases=1

New Load.Load_30907100012-l_C_C bus1=30907100012-XFO.3 kV=0.416 model=1 kW=19.607302 kvar=8.454669806815257 Phases=1

New Load.Load_31109400006-l_C_C bus1=31109400006-XFO.3 kV=0.416 model=1 kW=41.085847 kvar=17.855777342931493 Phases=1

New Load.Load_31108300028-l_A_B_C_A_B_C bus1=31108300028-XFO.3.2.1 kV=0.208 model=1 kW=61.40395500000001 kvar=27.04648338718473 Phases=3

New Load.Load_30907300016-l_B_B bus1=30907300016-XFO.2 kV=0.416 model=1 kW=9.917736000000001 kvar=4.391572883922995 Phases=1

New Load.Load_31007100013-l_A_B_C_A_B_C bus1=31007100013-XFO.3.2.1 kV=0.208 model=1 kW=231.113046 kvar=99.92253950831568 Phases=3

New Load.Load_31109100024-l_A_B_C_A_B_C bus1=31109100024-XFO.3.2.1 kV=0.48 model=1 kW=109.296438 kvar=43.90543326180191 Phases=3

New Load.Load_31109100042-l_C_C bus1=31109100042-XFO.3 kV=0.416 model=1 kW=15.075123000000001 kvar=6.573933299984592 Phases=1

New Load.Load_31108300040-l_A_A bus1=31108300040-XFO.1 kV=0.416 model=1 kW=113.172731 kvar=45.77550302422633 Phases=1

New Load.Load_30908400034-l_A_B_C_A_B_C bus1=30908400034-XFO.3.2.1 kV=0.208 model=1 kW=92.596302 kvar=41.527012299996684 Phases=3

New Load.Load_31108300009-l_A_A bus1=31108300009-XFO.1 kV=0.416 model=1 kW=11.418235999999998 kvar=5.115470652027393 Phases=1

New Load.Load_31109200020-l_A_A bus1=31109200020-XFO.1 kV=0.416 model=1 kW=21.474162 kvar=9.442672687944548 Phases=1

New Load.Load_31109100019-l_C_C bus1=31109100019-XFO.3 kV=0.416 model=1 kW=19.607302 kvar=8.454669806815257 Phases=1

