New Transformer.Trans_31109200023-XFO phases=1 windings=2 wdg=1 conn=wye Kv=13.2 kva=50.0 %R=0.11074536872270409 bus=419785_623_164616_544.2 wdg=2 conn=wye Kv=0.416 kva=50.0 %R=0.11074536872270409 bus=31109200023-XFO.2 XHL=0.4258425216272904

New Transformer.Trans_30908200052-XFO phases=1 windings=2 wdg=1 conn=wye Kv=13.2 kva=50.0 %R=0.1215322752623197 bus=421293_321_167787_944.1 wdg=2 conn=wye Kv=0.416 kva=50.0 %R=0.1215322752623197 bus=30908200052-XFO.1 XHL=0.46732076612968193

New Transformer.Trans_31008400011-XFO phases=1 windings=2 wdg=1 conn=wye Kv=13.2 kva=75.0 %R=0.14253576324256917 bus=421816_696_165439_965-1.2 wdg=2 conn=wye Kv=0.416 kva=75.0 %R=0.14253576324256917 bus=31008400011-XFO.2 XHL=0.4998669351896338

New Transformer.Trans_31109400001-XFO phases=1 windings=2 wdg=1 conn=wye Kv=13.2 kva=100.0 %R=0.10332368202567983 bus=419606_821_163972_326.3 wdg=2 conn=wye Kv=0.416 kva=100.0 %R=0.10332368202567983 bus=31109400001-XFO.3 XHL=0.5951444084679155

New Transformer.Trans_30908200012-XFO phases=1 windings=2 wdg=1 conn=wye Kv=13.2 kva=50.0 %R=0.13226057904431957 bus=30908202060-1.2 wdg=2 conn=wye Kv=0.416 kva=50.0 %R=0.13226057904431957 bus=30908200012-XFO.2 XHL=0.508573668964379

New Transformer.Trans_31108300020-XFO phases=3 windings=2 wdg=1 conn=wye Kv=13.2 kva=225.0 %R=0.14209387303009235 bus=420713_606_163777_992 wdg=2 conn=wye Kv=0.208 kva=225.0 %R=0.14209387303009235 bus=31108300020-XFO XHL=0.6778039730550657

New Transformer.Trans_30908200041-XFO phases=1 windings=2 wdg=1 conn=wye Kv=13.2 kva=50.0 %R=0.1215322752623197 bus=421106_895_167935_204.2 wdg=2 conn=wye Kv=0.416 kva=50.0 %R=0.1215322752623197 bus=30908200041-XFO.2 XHL=0.46732076612968193

New Transformer.Trans_31108300002-XFO phases=1 windings=2 wdg=1 conn=wye Kv=13.2 kva=25.0 %R=0.1605917603649162 bus=420343_774_163911_357-1.2 wdg=2 conn=wye Kv=0.416 kva=25.0 %R=0.1605917603649162 bus=31108300002-XFO.2 XHL=0.462660686225554

New Transformer.Trans_31109200005-XFO phases=1 windings=2 wdg=1 conn=wye Kv=13.2 kva=25.0 %R=0.1605917603649162 bus=419717_552_164391_015-1.1 wdg=2 conn=wye Kv=0.416 kva=25.0 %R=0.1605917603649162 bus=31109200005-XFO.1 XHL=0.462660686225554

New Transformer.Trans_30908200031-XFO phases=3 windings=2 wdg=1 conn=wye Kv=13.2 kva=300.0 %R=0.14649780408896643 bus=421573_959_168170_488 wdg=2 conn=wye Kv=0.48 kva=300.0 %R=0.14649780408896643 bus=30908200031-XFO XHL=0.7583915901814102

New Transformer.Trans_31008400008-XFO phases=1 windings=2 wdg=1 conn=wye Kv=13.2 kva=25.0 %R=0.1605917603649162 bus=421730_805_165211_926-1.1 wdg=2 conn=wye Kv=0.416 kva=25.0 %R=0.1605917603649162 bus=31008400008-XFO.1 XHL=0.462660686225554

New Transformer.Trans_30908200059-XFO phases=1 windings=2 wdg=1 conn=wye Kv=13.2 kva=25.0 %R=0.1586529520661163 bus=421395_702_167728_051.1 wdg=2 conn=wye Kv=0.416 kva=25.0 %R=0.1586529520661163 bus=30908200059-XFO.1 XHL=0.4570750299257272

New Transformer.Trans_31007100012-XFO phases=1 windings=2 wdg=1 conn=wye Kv=13.2 kva=25.0 %R=0.18232097409540507 bus=422453_086_166353_848-1.2 wdg=2 conn=wye Kv=0.416 kva=25.0 %R=0.18232097409540507 bus=31007100012-XFO.2 XHL=0.5252619860235352

New Transformer.Trans_30908300021-XFO phases=3 windings=2 wdg=1 conn=wye Kv=13.2 kva=1000.0 %R=0.09073043629765556 bus=421036_178_167268_813 wdg=2 conn=wye Kv=0.48 kva=1000.0 %R=0.09073043629765556 bus=30908300021-XFO XHL=1.87398526391851

New Transformer.Trans_31008400023-XFO phases=1 windings=2 wdg=1 conn=wye Kv=13.2 kva=100.0 %R=0.11769049265976349 bus=421605_117_165216_354.2 wdg=2 conn=wye Kv=0.416 kva=100.0 %R=0.11769049265976349 bus=31008400023-XFO.2 XHL=0.5559091590305101

New Transformer.Trans_30908200030-XFO phases=3 windings=2 wdg=1 conn=wye Kv=13.2 kva=500.0 %R=0.13813672963893303 bus=421671_288_168155_879 wdg=2 conn=wye Kv=0.48 kva=500.0 %R=0.13813672963893303 bus=30908200030-XFO XHL=0.9631373506245549

New Transformer.Trans_30908200056-XFO phases=1 windings=2 wdg=1 conn=wye Kv=13.2 kva=50.0 %R=0.1215322752623197 bus=421191_146_167900_683.1 wdg=2 conn=wye Kv=0.416 kva=50.0 %R=0.1215322752623197 bus=30908200056-XFO.1 XHL=0.46732076612968193

New Transformer.Trans_31109100013-XFO phases=3 windings=2 wdg=1 conn=wye Kv=13.2 kva=25.0 %R=0.16277255140447525 bus=419399_71_164703_621-1 wdg=2 conn=wye Kv=0.208 kva=25.0 %R=0.16277255140447525 bus=31109100013-XFO XHL=0.4689434885099566

New Transformer.Trans_31109100006-XFO phases=1 windings=2 wdg=1 conn=wye Kv=13.2 kva=25.0 %R=0.1605917603649162 bus=419208_115_164934_839-1.3 wdg=2 conn=wye Kv=0.416 kva=25.0 %R=0.1605917603649162 bus=31109100006-XFO.3 XHL=0.462660686225554

New Transformer.Trans_31109200008-XFO phases=1 windings=2 wdg=1 conn=wye Kv=13.2 kva=50.0 %R=0.1215322752623197 bus=419934_062_164334_719.2 wdg=2 conn=wye Kv=0.416 kva=50.0 %R=0.1215322752623197 bus=31109200008-XFO.2 XHL=0.46732076612968193

New Transformer.Trans_31109400006-XFO phases=1 windings=2 wdg=1 conn=wye Kv=13.2 kva=50.0 %R=0.13226057904431957 bus=420205_399_163967_73-1.3 wdg=2 conn=wye Kv=0.416 kva=50.0 %R=0.13226057904431957 bus=31109400006-XFO.3 XHL=0.508573668964379

New Transformer.Trans_30907100019-XFO phases=3 windings=2 wdg=1 conn=wye Kv=13.2 kva=300.0 %R=0.14852451325964208 bus=422277_485_167483_039 wdg=2 conn=wye Kv=0.208 kva=300.0 %R=0.14852451325964208 bus=30907100019-XFO XHL=0.7688834825366742

New Transformer.Trans_30907100005-XFO phases=1 windings=2 wdg=1 conn=wye Kv=13.2 kva=50.0 %R=0.13226057904431957 bus=422069_646_167800_625-1.1 wdg=2 conn=wye Kv=0.416 kva=50.0 %R=0.13226057904431957 bus=30907100005-XFO.1 XHL=0.508573668964379

New Transformer.Trans_31008400009-XFO phases=1 windings=2 wdg=1 conn=wye Kv=13.2 kva=25.0 %R=0.1605917603649162 bus=421831_532_165481_969-1.2 wdg=2 conn=wye Kv=0.416 kva=25.0 %R=0.1605917603649162 bus=31008400009-XFO.2 XHL=0.462660686225554

New Transformer.Trans_30907100009-XFO phases=1 windings=2 wdg=1 conn=wye Kv=13.2 kva=25.0 %R=0.1605917603649162 bus=30907102002-1.1 wdg=2 conn=wye Kv=0.416 kva=25.0 %R=0.1605917603649162 bus=30907100009-XFO.1 XHL=0.462660686225554

New Transformer.Trans_31007100013-XFO phases=3 windings=2 wdg=1 conn=wye Kv=13.2 kva=300.0 %R=0.14852451325964208 bus=422530_654_166216_077 wdg=2 conn=wye Kv=0.208 kva=300.0 %R=0.14852451325964208 bus=31007100013-XFO XHL=0.7688834825366742

New Transformer.Trans_30908200006-XFO phases=1 windings=2 wdg=1 conn=wye Kv=13.2 kva=50.0 %R=0.13226057904431957 bus=421385_368_167811_062-1.1 wdg=2 conn=wye Kv=0.416 kva=50.0 %R=0.13226057904431957 bus=30908200006-XFO.1 XHL=0.508573668964379

New Transformer.Trans_31108100026-XFO phases=1 windings=2 wdg=1 conn=wye Kv=13.2 kva=50.0 %R=0.1215322752623197 bus=420461_305_164626_705.3 wdg=2 conn=wye Kv=0.416 kva=50.0 %R=0.1215322752623197 bus=31108100026-XFO.3 XHL=0.46732076612968193

New Transformer.Trans_30908300001-XFO phases=3 windings=2 wdg=1 conn=wye Kv=13.2 kva=750.0 %R=0.11461355469298966 bus=420935_232_167047_403 wdg=2 conn=wye Kv=0.48 kva=750.0 %R=0.11461355469298966 bus=30908300001-XFO XHL=1.889076883574619

New Transformer.Trans_30907400035-XFO phases=3 windings=2 wdg=1 conn=wye Kv=13.2 kva=1500.0 %R=0.08775271203106645 bus=422811_7_166815_034 wdg=2 conn=wye Kv=0.48 kva=1500.0 %R=0.08775271203106645 bus=30907400035-XFO XHL=1.8647451306601588

New Transformer.Trans_30908400032-XFO phases=3 windings=2 wdg=1 conn=wye Kv=13.2 kva=300.0 %R=0.14649780408896643 bus=421188_144_167345_376 wdg=2 conn=wye Kv=0.48 kva=300.0 %R=0.14649780408896643 bus=30908400032-XFO XHL=0.7583915901814102

New Transformer.Trans_31108100011-XFO phases=1 windings=2 wdg=1 conn=wye Kv=13.2 kva=25.0 %R=0.1605917603649162 bus=31108102005-1.2 wdg=2 conn=wye Kv=0.416 kva=25.0 %R=0.1605917603649162 bus=31108100011-XFO.2 XHL=0.462660686225554

New Transformer.Trans_31108100025-XFO phases=1 windings=2 wdg=1 conn=wye Kv=13.2 kva=25.0 %R=0.1586529520661163 bus=420440_481_164356_331.3 wdg=2 conn=wye Kv=0.416 kva=25.0 %R=0.1586529520661163 bus=31108100025-XFO.3 XHL=0.4570750299257272

New Transformer.Trans_31108300032-XFO phases=1 windings=2 wdg=1 conn=wye Kv=13.2 kva=100.0 %R=0.11769049265976349 bus=420809_613_163497_49.2 wdg=2 conn=wye Kv=0.416 kva=100.0 %R=0.11769049265976349 bus=31108300032-XFO.2 XHL=0.5559091590305101

New Transformer.Trans_30908200003-XFO phases=1 windings=2 wdg=1 conn=wye Kv=13.2 kva=25.0 %R=0.1605917603649162 bus=421422_768_167911_411-1.1 wdg=2 conn=wye Kv=0.416 kva=25.0 %R=0.1605917603649162 bus=30908200003-XFO.1 XHL=0.462660686225554

New Transformer.Trans_31108100012-XFO phases=1 windings=2 wdg=1 conn=wye Kv=13.2 kva=25.0 %R=0.18232097409540507 bus=421078_884_164447_488-1.2 wdg=2 conn=wye Kv=0.416 kva=25.0 %R=0.18232097409540507 bus=31108100012-XFO.2 XHL=0.5252619860235352

New Transformer.Trans_31108100013-XFO phases=1 windings=2 wdg=1 conn=wye Kv=13.2 kva=25.0 %R=0.18232097409540507 bus=420955_644_164306_948-1.1 wdg=2 conn=wye Kv=0.416 kva=25.0 %R=0.18232097409540507 bus=31108100013-XFO.1 XHL=0.5252619860235352

New Transformer.Trans_31109100042-XFO phases=1 windings=2 wdg=1 conn=wye Kv=13.2 kva=50.0 %R=0.1215322752623197 bus=419182_621_164576_978.3 wdg=2 conn=wye Kv=0.416 kva=50.0 %R=0.1215322752623197 bus=31109100042-XFO.3 XHL=0.46732076612968193

New Transformer.Trans_31008400021-XFO phases=1 windings=2 wdg=1 conn=wye Kv=13.2 kva=100.0 %R=0.11769049265976349 bus=421438_581_165367_213.2 wdg=2 conn=wye Kv=0.416 kva=100.0 %R=0.11769049265976349 bus=31008400021-XFO.2 XHL=0.5559091590305101

New Transformer.Trans_30808400003-XFO phases=3 windings=2 wdg=1 conn=wye Kv=13.2 kva=150.0 %R=0.1402103070098478 bus=421354_22_168464_525 wdg=2 conn=wye Kv=0.48 kva=150.0 %R=0.1402103070098478 bus=30808400003-XFO XHL=0.6479740820688188

New Transformer.Trans_31007300010-XFO phases=1 windings=2 wdg=1 conn=wye Kv=13.2 kva=25.0 %R=0.1586529520661163 bus=421994_397_165472_097.2 wdg=2 conn=wye Kv=0.416 kva=25.0 %R=0.1586529520661163 bus=31007300010-XFO.2 XHL=0.4570750299257272

New Transformer.Trans_31108100023-XFO phases=1 windings=2 wdg=1 conn=wye Kv=13.2 kva=25.0 %R=0.1586529520661163 bus=420439_949_164528_623.3 wdg=2 conn=wye Kv=0.416 kva=25.0 %R=0.1586529520661163 bus=31108100023-XFO.3 XHL=0.4570750299257272

New Transformer.Trans_30907300009-XFO phases=1 windings=2 wdg=1 conn=wye Kv=13.2 kva=25.0 %R=0.1605917603649162 bus=422316_405_167134_561-1.2 wdg=2 conn=wye Kv=0.416 kva=25.0 %R=0.1605917603649162 bus=30907300009-XFO.2 XHL=0.462660686225554

New Transformer.Trans_31008400004-XFO phases=1 windings=2 wdg=1 conn=wye Kv=13.2 kva=25.0 %R=0.1605917603649162 bus=421657_579_165501_139-1.1 wdg=2 conn=wye Kv=0.416 kva=25.0 %R=0.1605917603649162 bus=31008400004-XFO.1 XHL=0.462660686225554

New Transformer.Trans_30908200053-XFO phases=1 windings=2 wdg=1 conn=wye Kv=13.2 kva=50.0 %R=0.1215322752623197 bus=421357_585_167891_917.1 wdg=2 conn=wye Kv=0.416 kva=50.0 %R=0.1215322752623197 bus=30908200053-XFO.1 XHL=0.46732076612968193

New Transformer.Trans_31108200011-XFO phases=1 windings=2 wdg=1 conn=wye Kv=13.2 kva=50.0 %R=0.1215322752623197 bus=421082_759_164550_297.2 wdg=2 conn=wye Kv=0.416 kva=50.0 %R=0.1215322752623197 bus=31108200011-XFO.2 XHL=0.46732076612968193

New Transformer.Trans_31109200029-XFO phases=1 windings=2 wdg=1 conn=wye Kv=13.2 kva=50.0 %R=0.11074536872270409 bus=419910_607_164620_189.2 wdg=2 conn=wye Kv=0.416 kva=50.0 %R=0.11074536872270409 bus=31109200029-XFO.2 XHL=0.4258425216272904

New Transformer.Trans_30907300031-XFO phases=1 windings=2 wdg=1 conn=wye Kv=13.2 kva=100.0 %R=0.10332368202567983 bus=422488_511_166629_71.3 wdg=2 conn=wye Kv=0.416 kva=100.0 %R=0.10332368202567983 bus=30907300031-XFO.3 XHL=0.5951444084679155

New Transformer.Trans_31008400019-XFO phases=1 windings=2 wdg=1 conn=wye Kv=13.2 kva=100.0 %R=0.11769049265976349 bus=421470_879_165091_318.3 wdg=2 conn=wye Kv=0.416 kva=100.0 %R=0.11769049265976349 bus=31008400019-XFO.3 XHL=0.5559091590305101

New Transformer.Trans_30908200013-XFO phases=1 windings=2 wdg=1 conn=wye Kv=13.2 kva=25.0 %R=0.1605917603649162 bus=421629_563_167649_202-1.2 wdg=2 conn=wye Kv=0.416 kva=25.0 %R=0.1605917603649162 bus=30908200013-XFO.2 XHL=0.462660686225554

New Transformer.Trans_31109100010-XFO phases=1 windings=2 wdg=1 conn=wye Kv=13.2 kva=50.0 %R=0.13226057904431957 bus=419369_476_164519_484-1.2 wdg=2 conn=wye Kv=0.416 kva=50.0 %R=0.13226057904431957 bus=31109100010-XFO.2 XHL=0.508573668964379

New Transformer.Trans_31008400030-XFO phases=1 windings=2 wdg=1 conn=wye Kv=13.2 kva=50.0 %R=0.11074536872270409 bus=421828_633_165686_228.3 wdg=2 conn=wye Kv=0.416 kva=50.0 %R=0.11074536872270409 bus=31008400030-XFO.3 XHL=0.4258425216272904

New Transformer.Trans_30908200028-XFO phases=1 windings=2 wdg=1 conn=wye Kv=13.2 kva=50.0 %R=0.1215322752623197 bus=421349_239_167942_74.1 wdg=2 conn=wye Kv=0.416 kva=50.0 %R=0.1215322752623197 bus=30908200028-XFO.1 XHL=0.46732076612968193

New Transformer.Trans_30907100012-XFO phases=1 windings=2 wdg=1 conn=wye Kv=13.2 kva=25.0 %R=0.1605917603649162 bus=422366_393_167668_464-1.3 wdg=2 conn=wye Kv=0.416 kva=25.0 %R=0.1605917603649162 bus=30907100012-XFO.3 XHL=0.462660686225554

New Transformer.Trans_31108300030-XFO phases=1 windings=2 wdg=1 conn=wye Kv=13.2 kva=100.0 %R=0.11769049265976349 bus=420828_127_163558_042.3 wdg=2 conn=wye Kv=0.416 kva=100.0 %R=0.11769049265976349 bus=31108300030-XFO.3 XHL=0.5559091590305101

New Transformer.Trans_31108100014-XFO phases=1 windings=2 wdg=1 conn=wye Kv=13.2 kva=10.0 %R=0.20286281604041853 bus=420911_129_164240_444-1.1 wdg=2 conn=wye Kv=0.416 kva=10.0 %R=0.20286281604041853 bus=31108100014-XFO.1 XHL=0.3751992412487069

New Transformer.Trans_31208100301-XFO phases=1 windings=2 wdg=1 conn=wye Kv=13.2 kva=25.0 %R=0.1605917603649162 bus=420810_575_163132_589-1.3 wdg=2 conn=wye Kv=0.416 kva=25.0 %R=0.1605917603649162 bus=31208100301-XFO.3 XHL=0.462660686225554

New Transformer.Trans_31007100005-XFO phases=1 windings=2 wdg=1 conn=wye Kv=13.2 kva=25.0 %R=0.1605917603649162 bus=31007102001-1.3 wdg=2 conn=wye Kv=0.416 kva=25.0 %R=0.1605917603649162 bus=31007100005-XFO.3 XHL=0.462660686225554

New Transformer.Trans_31109100031-XFO phases=1 windings=2 wdg=1 conn=wye Kv=13.2 kva=25.0 %R=0.1605917603649162 bus=419464_822_164413_811-1.2 wdg=2 conn=wye Kv=0.416 kva=25.0 %R=0.1605917603649162 bus=31109100031-XFO.2 XHL=0.462660686225554

New Transformer.Trans_30907300016-XFO phases=1 windings=2 wdg=1 conn=wye Kv=13.2 kva=100.0 %R=0.10332368202567983 bus=422534_845_167320_578.2 wdg=2 conn=wye Kv=0.416 kva=100.0 %R=0.10332368202567983 bus=30907300016-XFO.2 XHL=0.5951444084679155

New Transformer.Trans_31007100015-XFO phases=1 windings=2 wdg=1 conn=wye Kv=13.2 kva=25.0 %R=0.1605917603649162 bus=421987_561_166033_147-1.3 wdg=2 conn=wye Kv=0.416 kva=25.0 %R=0.1605917603649162 bus=31007100015-XFO.3 XHL=0.462660686225554

New Transformer.Trans_31007300001-XFO phases=1 windings=2 wdg=1 conn=wye Kv=13.2 kva=25.0 %R=0.1605917603649162 bus=421923_651_165705_919-1.3 wdg=2 conn=wye Kv=0.416 kva=25.0 %R=0.1605917603649162 bus=31007300001-XFO.3 XHL=0.462660686225554

New Transformer.Trans_30908400033-XFO phases=1 windings=2 wdg=1 conn=wye Kv=13.2 kva=50.0 %R=0.1215322752623197 bus=421166_815_167307_796.1 wdg=2 conn=wye Kv=0.416 kva=50.0 %R=0.1215322752623197 bus=30908400033-XFO.1 XHL=0.46732076612968193

New Transformer.Trans_31108100018-XFO phases=1 windings=2 wdg=1 conn=wye Kv=13.2 kva=50.0 %R=0.13226057904431957 bus=420572_504_164347_348-1.3 wdg=2 conn=wye Kv=0.416 kva=50.0 %R=0.13226057904431957 bus=31108100018-XFO.3 XHL=0.508573668964379

New Transformer.Trans_30908400027-XFO phases=1 windings=2 wdg=1 conn=wye Kv=13.2 kva=100.0 %R=0.10332368202567983 bus=421261_064_167253_43.2 wdg=2 conn=wye Kv=0.416 kva=100.0 %R=0.10332368202567983 bus=30908400027-XFO.2 XHL=0.5951444084679155

New Transformer.Trans_30908200037-XFO phases=3 windings=2 wdg=1 conn=wye Kv=13.2 kva=25.0 %R=0.16016292056668174 bus=421614_495_167944_905-1 wdg=2 conn=wye Kv=0.208 kva=25.0 %R=0.16016292056668174 bus=30908200037-XFO XHL=0.4614252099166753

New Transformer.Trans_30808400005-XFO phases=1 windings=2 wdg=1 conn=wye Kv=13.2 kva=25.0 %R=0.1605917603649162 bus=421221_001_168397_668-1.3 wdg=2 conn=wye Kv=0.416 kva=25.0 %R=0.1605917603649162 bus=30808400005-XFO.3 XHL=0.462660686225554

New Transformer.Trans_31108300029-XFO phases=1 windings=2 wdg=1 conn=wye Kv=13.2 kva=100.0 %R=0.11769049265976349 bus=420878_833_163606_467.3 wdg=2 conn=wye Kv=0.416 kva=100.0 %R=0.11769049265976349 bus=31108300029-XFO.3 XHL=0.5559091590305101

New Transformer.Trans_31007100003-XFO phases=1 windings=2 wdg=1 conn=wye Kv=13.2 kva=25.0 %R=0.1605917603649162 bus=422278_191_166039_735-1.3 wdg=2 conn=wye Kv=0.416 kva=25.0 %R=0.1605917603649162 bus=31007100003-XFO.3 XHL=0.462660686225554

New Transformer.Trans_30908200008-XFO phases=1 windings=2 wdg=1 conn=wye Kv=13.2 kva=10.0 %R=0.20286281604041853 bus=421538_642_167846_227-1.1 wdg=2 conn=wye Kv=0.416 kva=10.0 %R=0.20286281604041853 bus=30908200008-XFO.1 XHL=0.3751992412487069

New Transformer.Trans_30908400034-XFO phases=3 windings=2 wdg=1 conn=wye Kv=13.2 kva=150.0 %R=0.1599963098014765 bus=421228_307_167320_173 wdg=2 conn=wye Kv=0.208 kva=150.0 %R=0.1599963098014765 bus=30908400034-XFO XHL=0.7394139859541745

New Transformer.Trans_31007300011-XFO phases=1 windings=2 wdg=1 conn=wye Kv=13.2 kva=25.0 %R=0.1586529520661163 bus=422128_455_165347_914.2 wdg=2 conn=wye Kv=0.416 kva=25.0 %R=0.1586529520661163 bus=31007300011-XFO.2 XHL=0.4570750299257272

New Transformer.Trans_31208100308-XFO phases=1 windings=2 wdg=1 conn=wye Kv=13.2 kva=25.0 %R=0.1605917603649162 bus=420728_044_163283_795-1.3 wdg=2 conn=wye Kv=0.416 kva=25.0 %R=0.1605917603649162 bus=31208100308-XFO.3 XHL=0.462660686225554

New Transformer.Trans_31108200008-XFO phases=1 windings=2 wdg=1 conn=wye Kv=13.2 kva=50.0 %R=0.1215322752623197 bus=421127_495_164727_041.3 wdg=2 conn=wye Kv=0.416 kva=50.0 %R=0.1215322752623197 bus=31108200008-XFO.3 XHL=0.46732076612968193

New Transformer.Trans_30908200020-XFO phases=1 windings=2 wdg=1 conn=wye Kv=13.2 kva=25.0 %R=0.1605917603649162 bus=421646_583_167933_448-1.2 wdg=2 conn=wye Kv=0.416 kva=25.0 %R=0.1605917603649162 bus=30908200020-XFO.2 XHL=0.462660686225554

New Transformer.Trans_30907300017-XFO phases=1 windings=2 wdg=1 conn=wye Kv=13.2 kva=25.0 %R=0.1605917603649162 bus=422542_678_166877_539-1.1 wdg=2 conn=wye Kv=0.416 kva=25.0 %R=0.1605917603649162 bus=30907300017-XFO.1 XHL=0.462660686225554

New Transformer.Trans_31007100002-XFO phases=1 windings=2 wdg=1 conn=wye Kv=13.2 kva=25.0 %R=0.1605917603649162 bus=422183_827_165973_859-1.1 wdg=2 conn=wye Kv=0.416 kva=25.0 %R=0.1605917603649162 bus=31007100002-XFO.1 XHL=0.462660686225554

New Transformer.Trans_31109200004-XFO phases=1 windings=2 wdg=1 conn=wye Kv=13.2 kva=25.0 %R=0.1605917603649162 bus=419637_366_164342_857-1.3 wdg=2 conn=wye Kv=0.416 kva=25.0 %R=0.1605917603649162 bus=31109200004-XFO.3 XHL=0.462660686225554

New Transformer.Trans_30907300023-XFO phases=3 windings=2 wdg=1 conn=wye Kv=13.2 kva=500.0 %R=0.13813672963893303 bus=422637_945_166654_338 wdg=2 conn=wye Kv=0.48 kva=500.0 %R=0.13813672963893303 bus=30907300023-XFO XHL=0.9631373506245549

New Transformer.Trans_30908200032-XFO phases=1 windings=2 wdg=1 conn=wye Kv=13.2 kva=50.0 %R=0.1215322752623197 bus=421544_55_167612_889.2 wdg=2 conn=wye Kv=0.416 kva=50.0 %R=0.1215322752623197 bus=30908200032-XFO.2 XHL=0.46732076612968193

New Transformer.Trans_31108100015-XFO phases=1 windings=2 wdg=1 conn=wye Kv=13.2 kva=50.0 %R=0.13226057904431957 bus=420722_35_164233_84-1.3 wdg=2 conn=wye Kv=0.416 kva=50.0 %R=0.13226057904431957 bus=31108100015-XFO.3 XHL=0.508573668964379

New Transformer.Trans_30907300018-XFO phases=1 windings=2 wdg=1 conn=wye Kv=13.2 kva=15.0 %R=0.20672718667498008 bus=422552_036_166929_41-1.2 wdg=2 conn=wye Kv=0.416 kva=15.0 %R=0.20672718667498008 bus=30907300018-XFO.2 XHL=0.3153656309076688

New Transformer.Trans_30808400006-XFO phases=1 windings=2 wdg=1 conn=wye Kv=13.2 kva=25.0 %R=0.1605917603649162 bus=421357_109_168259_266-1.3 wdg=2 conn=wye Kv=0.416 kva=25.0 %R=0.1605917603649162 bus=30808400006-XFO.3 XHL=0.462660686225554

New Transformer.Trans_31108300031-XFO phases=1 windings=2 wdg=1 conn=wye Kv=13.2 kva=75.0 %R=0.14520074781683245 bus=420856_314_163491_286.2 wdg=2 conn=wye Kv=0.416 kva=75.0 %R=0.14520074781683245 bus=31108300031-XFO.2 XHL=0.509212924162223

New Transformer.Trans_31108300038-XFO phases=3 windings=2 wdg=1 conn=wye Kv=13.2 kva=150.0 %R=0.1599963098014765 bus=420648_6_163743_186 wdg=2 conn=wye Kv=0.208 kva=150.0 %R=0.1599963098014765 bus=31108300038-XFO XHL=0.7394139859541745

New Transformer.Trans_30907300028-XFO phases=3 windings=2 wdg=1 conn=wye Kv=13.2 kva=225.0 %R=0.14209387303009235 bus=422301_124_167343_338 wdg=2 conn=wye Kv=0.208 kva=225.0 %R=0.14209387303009235 bus=30907300028-XFO XHL=0.6778039730550657

New Transformer.Trans_30908200023-XFO phases=1 windings=2 wdg=1 conn=wye Kv=13.2 kva=25.0 %R=0.1586529520661163 bus=421302_732_168014_885.1 wdg=2 conn=wye Kv=0.416 kva=25.0 %R=0.1586529520661163 bus=30908200023-XFO.1 XHL=0.4570750299257272

New Transformer.Trans_31108300005-XFO phases=1 windings=2 wdg=1 conn=wye Kv=13.2 kva=25.0 %R=0.1605917603649162 bus=420755_065_163792_089-1.2 wdg=2 conn=wye Kv=0.416 kva=25.0 %R=0.1605917603649162 bus=31108300005-XFO.2 XHL=0.462660686225554

New Transformer.Trans_30907100022-XFO phases=3 windings=2 wdg=1 conn=wye Kv=13.2 kva=225.0 %R=0.15201906796916498 bus=421895_001_168118_308 wdg=2 conn=wye Kv=0.48 kva=225.0 %R=0.15201906796916498 bus=30907100022-XFO XHL=0.7251482843866651

New Transformer.Trans_31109200011-XFO phases=3 windings=2 wdg=1 conn=wye Kv=13.2 kva=750.0 %R=0.11461355469298966 bus=420195_851_164286_539 wdg=2 conn=wye Kv=0.48 kva=750.0 %R=0.11461355469298966 bus=31109200011-XFO XHL=1.889076883574619

New Transformer.Trans_31109100019-XFO phases=1 windings=2 wdg=1 conn=wye Kv=13.2 kva=25.0 %R=0.1605917603649162 bus=419250_55_164795_397-1.3 wdg=2 conn=wye Kv=0.416 kva=25.0 %R=0.1605917603649162 bus=31109100019-XFO.3 XHL=0.462660686225554

New Transformer.Trans_30908200065-XFO phases=1 windings=2 wdg=1 conn=wye Kv=13.2 kva=50.0 %R=0.11074536872270409 bus=421385_555_167487_12.2 wdg=2 conn=wye Kv=0.416 kva=50.0 %R=0.11074536872270409 bus=30908200065-XFO.2 XHL=0.4258425216272904

New Transformer.Trans_31108300015-XFO phases=3 windings=2 wdg=1 conn=wye Kv=13.2 kva=10.0 %R=0.2060015874147004 bus=420571_826_163845_007-1 wdg=2 conn=wye Kv=0.208 kva=10.0 %R=0.2060015874147004 bus=31108300015-XFO XHL=0.38100446795841136

New Transformer.Trans_31109200022-XFO phases=1 windings=2 wdg=1 conn=wye Kv=13.2 kva=75.0 %R=0.13458267050993195 bus=419811_216_164579_641.2 wdg=2 conn=wye Kv=0.416 kva=75.0 %R=0.13458267050993195 bus=31109200022-XFO.2 XHL=0.47197577300616983

New Transformer.Trans_30808400007-XFO phases=1 windings=2 wdg=1 conn=wye Kv=13.2 kva=25.0 %R=0.1605917603649162 bus=421227_078_168290_554-1.3 wdg=2 conn=wye Kv=0.416 kva=25.0 %R=0.1605917603649162 bus=30808400007-XFO.3 XHL=0.462660686225554

New Transformer.Trans_30808400040-XFO phases=3 windings=2 wdg=1 conn=wye Kv=13.2 kva=225.0 %R=0.14209387303009235 bus=421432_285_168383_807 wdg=2 conn=wye Kv=0.208 kva=225.0 %R=0.14209387303009235 bus=30808400040-XFO XHL=0.6778039730550657

New Transformer.Trans_30907300001-XFO phases=1 windings=2 wdg=1 conn=wye Kv=13.2 kva=100.0 %R=0.10332368202567983 bus=422591_348_167414_769.2 wdg=2 conn=wye Kv=0.416 kva=100.0 %R=0.10332368202567983 bus=30907300001-XFO.2 XHL=0.5951444084679155

New Transformer.Trans_30908200062-XFO phases=1 windings=2 wdg=1 conn=wye Kv=13.2 kva=25.0 %R=0.1586529520661163 bus=421525_589_167500_268.2 wdg=2 conn=wye Kv=0.416 kva=25.0 %R=0.1586529520661163 bus=30908200062-XFO.2 XHL=0.4570750299257272

New Transformer.Trans_30908200051-XFO phases=1 windings=2 wdg=1 conn=wye Kv=13.2 kva=25.0 %R=0.1586529520661163 bus=421230_313_167794_768.1 wdg=2 conn=wye Kv=0.416 kva=25.0 %R=0.1586529520661163 bus=30908200051-XFO.1 XHL=0.4570750299257272

New Transformer.Trans_30808400038-XFO phases=1 windings=2 wdg=1 conn=wye Kv=13.2 kva=25.0 %R=0.1586529520661163 bus=421469_582_168393_9.1 wdg=2 conn=wye Kv=0.416 kva=25.0 %R=0.1586529520661163 bus=30808400038-XFO.1 XHL=0.4570750299257272

New Transformer.Trans_31109200024-XFO phases=1 windings=2 wdg=1 conn=wye Kv=13.2 kva=75.0 %R=0.13458267050993195 bus=419621_753_164677_304.2 wdg=2 conn=wye Kv=0.416 kva=75.0 %R=0.13458267050993195 bus=31109200024-XFO.2 XHL=0.47197577300616983

New Transformer.Trans_30907300026-XFO phases=3 windings=2 wdg=1 conn=wye Kv=13.2 kva=1500.0 %R=0.08775271203106645 bus=422660_282_166760_422 wdg=2 conn=wye Kv=0.48 kva=1500.0 %R=0.08775271203106645 bus=30907300026-XFO XHL=1.8647451306601588

New Transformer.Trans_31008400016-XFO phases=1 windings=2 wdg=1 conn=wye Kv=13.2 kva=75.0 %R=0.14520074781683245 bus=421603_529_165417_508.2 wdg=2 conn=wye Kv=0.416 kva=75.0 %R=0.14520074781683245 bus=31008400016-XFO.2 XHL=0.509212924162223

New Transformer.Trans_31108300037-XFO phases=3 windings=2 wdg=1 conn=wye Kv=13.2 kva=150.0 %R=0.1402103070098478 bus=420522_227_163836_219 wdg=2 conn=wye Kv=0.48 kva=150.0 %R=0.1402103070098478 bus=31108300037-XFO XHL=0.6479740820688188

New Transformer.Trans_31108200009-XFO phases=1 windings=2 wdg=1 conn=wye Kv=13.2 kva=25.0 %R=0.1605917603649162 bus=421217_53_164740_16-1.3 wdg=2 conn=wye Kv=0.416 kva=25.0 %R=0.1605917603649162 bus=31108200009-XFO.3 XHL=0.462660686225554

New Transformer.Trans_31007100010-XFO phases=1 windings=2 wdg=1 conn=wye Kv=13.2 kva=50.0 %R=0.11074536872270409 bus=422247_84_166566_193.1 wdg=2 conn=wye Kv=0.416 kva=50.0 %R=0.11074536872270409 bus=31007100010-XFO.1 XHL=0.4258425216272904

New Transformer.Trans_31108200004-XFO phases=1 windings=2 wdg=1 conn=wye Kv=13.2 kva=5.0 %R=0.2892828549195646 bus=421548_718_164979_517-1.1 wdg=2 conn=wye Kv=0.416 kva=5.0 %R=0.2892828549195646 bus=31108200004-XFO.1 XHL=0.43966596848379025

New Transformer.Trans_30908200024-XFO phases=1 windings=2 wdg=1 conn=wye Kv=13.2 kva=50.0 %R=0.13226057904431957 bus=421518_838_167915_891-1.1 wdg=2 conn=wye Kv=0.416 kva=50.0 %R=0.13226057904431957 bus=30908200024-XFO.1 XHL=0.508573668964379

New Transformer.Trans_30908200047-XFO phases=3 windings=2 wdg=1 conn=wye Kv=13.2 kva=225.0 %R=0.15201906796916498 bus=421253_647_167504_304 wdg=2 conn=wye Kv=0.48 kva=225.0 %R=0.15201906796916498 bus=30908200047-XFO XHL=0.7251482843866651

New Transformer.Trans_30808400042-XFO phases=3 windings=2 wdg=1 conn=wye Kv=13.2 kva=300.0 %R=0.14852451325964208 bus=421475_709_168523_471 wdg=2 conn=wye Kv=0.208 kva=300.0 %R=0.14852451325964208 bus=30808400042-XFO XHL=0.7688834825366742

New Transformer.Trans_31109200014-XFO phases=1 windings=2 wdg=1 conn=wye Kv=13.2 kva=37.0 %R=0.16818952943446633 bus=419757_023_164369_91-1.1 wdg=2 conn=wye Kv=0.416 kva=37.0 %R=0.16818952943446633 bus=31109200014-XFO.1 XHL=0.38481629782982335

New Transformer.Trans_31109400003-XFO phases=1 windings=2 wdg=1 conn=wye Kv=13.2 kva=25.0 %R=0.1605917603649162 bus=420043_366_164081_218-1.3 wdg=2 conn=wye Kv=0.416 kva=25.0 %R=0.1605917603649162 bus=31109400003-XFO.3 XHL=0.462660686225554

New Transformer.Trans_31108300009-XFO phases=1 windings=2 wdg=1 conn=wye Kv=13.2 kva=10.0 %R=0.20379829251916734 bus=420886_891_163861_155-1.1 wdg=2 conn=wye Kv=0.416 kva=10.0 %R=0.20379829251916734 bus=31108300009-XFO.1 XHL=0.37692942557663534

New Transformer.Trans_31108300040-XFO phases=1 windings=2 wdg=1 conn=wye Kv=13.2 kva=100.0 %R=0.10787411117008239 bus=420877_553_163698_161.1 wdg=2 conn=wye Kv=0.416 kva=100.0 %R=0.10787411117008239 bus=31108300040-XFO.1 XHL=0.5095394806438819

New Transformer.Trans_30908100018-XFO phases=1 windings=2 wdg=1 conn=wye Kv=13.2 kva=100.0 %R=0.10787411117008239 bus=421071_271_168138_489.3 wdg=2 conn=wye Kv=0.416 kva=100.0 %R=0.10787411117008239 bus=30908100018-XFO.3 XHL=0.5095394806438819

New Transformer.Trans_31108100019-XFO phases=1 windings=2 wdg=1 conn=wye Kv=13.2 kva=25.0 %R=0.1605917603649162 bus=420475_5_164452_671-1.3 wdg=2 conn=wye Kv=0.416 kva=25.0 %R=0.1605917603649162 bus=31108100019-XFO.3 XHL=0.462660686225554

New Transformer.Trans_31109200028-XFO phases=1 windings=2 wdg=1 conn=wye Kv=13.2 kva=50.0 %R=0.11074536872270409 bus=419790_895_164685_831.2 wdg=2 conn=wye Kv=0.416 kva=50.0 %R=0.11074536872270409 bus=31109200028-XFO.2 XHL=0.4258425216272904

New Transformer.Trans_31109100011-XFO phases=1 windings=2 wdg=1 conn=wye Kv=13.2 kva=25.0 %R=0.1605917603649162 bus=419442_617_164374_569-1.2 wdg=2 conn=wye Kv=0.416 kva=25.0 %R=0.1605917603649162 bus=31109100011-XFO.2 XHL=0.462660686225554

New Transformer.Trans_30908200048-XFO phases=1 windings=2 wdg=1 conn=wye Kv=13.2 kva=75.0 %R=0.14520074781683245 bus=421769_075_167881_608.2 wdg=2 conn=wye Kv=0.416 kva=75.0 %R=0.14520074781683245 bus=30908200048-XFO.2 XHL=0.509212924162223

New Transformer.Trans_31007300002-XFO phases=1 windings=2 wdg=1 conn=wye Kv=13.2 kva=5.0 %R=0.2934112397358043 bus=422095_27_165808_754-1.2 wdg=2 conn=wye Kv=0.416 kva=5.0 %R=0.2934112397358043 bus=31007300002-XFO.2 XHL=0.4459404858899825

New Transformer.Trans_31109200015-XFO phases=1 windings=2 wdg=1 conn=wye Kv=13.2 kva=25.0 %R=0.1605917603649162 bus=420177_331_164531_389-1.2 wdg=2 conn=wye Kv=0.416 kva=25.0 %R=0.1605917603649162 bus=31109200015-XFO.2 XHL=0.462660686225554

New Transformer.Trans_31007100021-XFO phases=1 windings=2 wdg=1 conn=wye Kv=13.2 kva=25.0 %R=0.1586529520661163 bus=422420_262_166561_13.2 wdg=2 conn=wye Kv=0.416 kva=25.0 %R=0.1586529520661163 bus=31007100021-XFO.2 XHL=0.4570750299257272

New Transformer.Trans_31108200001-XFO phases=1 windings=2 wdg=1 conn=wye Kv=13.2 kva=25.0 %R=0.1605917603649162 bus=421282_182_164549_5-1.3 wdg=2 conn=wye Kv=0.416 kva=25.0 %R=0.1605917603649162 bus=31108200001-XFO.3 XHL=0.462660686225554

New Transformer.Trans_30907100016-XFO phases=1 windings=2 wdg=1 conn=wye Kv=13.2 kva=25.0 %R=0.1586529520661163 bus=422190_562_167849_922.1 wdg=2 conn=wye Kv=0.416 kva=25.0 %R=0.1586529520661163 bus=30907100016-XFO.1 XHL=0.4570750299257272
