New Line.oh_14183998 Units=km Length=0.21530000999999999 bus1=411707_187_161377_473.3 bus2=31314202505.3 switch=n enabled=y phases=1 Linecode=K_65_13.8KV_1

New Fuse.Fuse_oh_14183998 monitoredobj=Line.oh_14183998 enabled=y ratedcurrent=10000.0

New Line.oh_4695315 Units=km Length=0.032746828 bus1=31214102015.1.2.3 bus2=411307_518_162629_345.1.2.3 switch=n enabled=y phases=3 Linecode=K_100_13.8KV_3

New Fuse.Fuse_oh_4695315 monitoredobj=Line.oh_4695315 enabled=y ratedcurrent=10000.0

New Line.oh_4695322-2 Units=km Length=0.147936468 bus1=411346_96_162618_855.1.2.3 bus2=411387_712_162599_597.1.2.3 switch=n enabled=y phases=3 Linecode=3P_OH_Code0

New Line.oh_4695280-4 Units=km Length=0.113492792 bus1=411204_782_162703_244.1.2.3 bus2=31214102517.1.2.3 switch=n enabled=y phases=3 Linecode=3P_OH_Code0

New Line.oh_14219485 Units=km Length=0.017290804000000003 bus1=31214402000.1.2.3 bus2=31214402001.1.2.3 switch=n enabled=y phases=3 Linecode=K_50_13.8KV_3

New Fuse.Fuse_oh_14219485 monitoredobj=Line.oh_14219485 enabled=y ratedcurrent=10000.0

New Line.oh_14184156-1 Units=km Length=0.19995622000000002 bus1=411743_927_161328_127.1.2.3 bus2=31314202001.1.2.3 switch=n enabled=y phases=3 Linecode=3P_OH_Code1

New Line.oh_4695061-4 Units=km Length=0.177457371 bus1=31214102504.1.2.3 bus2=410715_536_162992_755.1.2.3 switch=n enabled=y phases=3 Linecode=3P_OH_Code0

New Line.oh_14184064-5 Units=km Length=0.27689397200000004 bus1=411269_802_161612_74.1 bus2=411232_609_161679_961.1 switch=n enabled=y phases=1 Linecode=1P_OH_Code2

New Line.oh_9645684 Units=km Length=0.124516576 bus1=412378_506_161815_224.1.2.3 bus2=412355_702_161854_709.1.2.3 switch=n enabled=y phases=3 Linecode=3P_OH_Code3

New Line.oh_14184058-1 Units=km Length=0.124743209 bus1=411362_402_161682_145.1 bus2=31314102505.1 switch=n enabled=y phases=1 Linecode=1P_OH_Code2

New Line.oh_14184092 Units=km Length=0.23641736000000002 bus1=31314202509.1.2.3 bus2=411661_414_161747_302.1.2.3 switch=n enabled=y phases=3 Linecode=3P_OH_Code3

New Line.oh_14183978 Units=km Length=0.31274033500000004 bus1=31314102503.1 bus2=411362_402_161682_145.1 switch=n enabled=y phases=1 Linecode=1P_OH_Code2

New Line.oh_9646983-1 Units=km Length=0.120057369 bus1=31213302014.1.2.3 bus2=412743_527_162066_584.1.2.3 switch=n enabled=y phases=3 Linecode=3P_OH_Code0

New Line.oh_4694639 Units=km Length=0.200714987 bus1=31214102504.3 bus2=410639_826_162972_892.3 switch=n enabled=y phases=1 Linecode=K_65_13.8KV_1

New Fuse.Fuse_oh_4694639 monitoredobj=Line.oh_4694639 enabled=y ratedcurrent=10000.0

New Line.oh_14184114-2 Units=km Length=0.292038982 bus1=411746_677_161688_48.1.2.3 bus2=411742_031_161613_983.1.2.3 switch=n enabled=y phases=3 Linecode=3P_OH_Code1

New Line.oh_4695456-2 Units=km Length=0.20566482 bus1=410578_653_162878_559.3 bus2=410546_822_162824_564.3 switch=n enabled=y phases=1 Linecode=1P_OH_Code2

New Line.oh_4695468 Units=km Length=0.030187097000000003 bus1=31215202102.1.2.3 bus2=410609_26_163071_653.1.2.3 switch=n enabled=y phases=3 Linecode=3P_OH_Code4

New Line.oh_9589320 Units=km Length=0.149000005 bus1=412286_871_161799_65.1.2.3 bus2=31313102033_9981091.1.2.3 switch=y enabled=y phases=3 Linecode=21898_3

New Line.oh_4694588 Units=km Length=0.0201415 bus1=31214102514.2.3 bus2=410858_904_162915_685.2.3 switch=n enabled=y phases=2 Linecode=K_65_13.8KV_2

New Fuse.Fuse_oh_4694588 monitoredobj=Line.oh_4694588 enabled=y ratedcurrent=10000.0

New Line.oh_14220164 Units=km Length=0.225000007 bus1=31214402003.1.2.3 bus2=411542_829_161887_337.1.2.3 switch=y enabled=y phases=3 Linecode=11825_3

New Line.oh_4695250-1 Units=km Length=0.127165857 bus1=411085_939_162797_327.1.2.3 bus2=31214102101_4854916.1.2.3 switch=n enabled=y phases=3 Linecode=3P_OH_Code0

New Line.oh_14220144-4 Units=km Length=0.18105000300000001 bus1=411410_848_161787_011.1 bus2=31314102503.1 switch=n enabled=y phases=1 Linecode=1P_OH_Code2

New Line.oh_4695280 Units=km Length=0.14213762900000002 bus1=411270_727_162660_376.1.2.3 bus2=31214102015.1.2.3 switch=n enabled=y phases=3 Linecode=3P_OH_Code0

New Line.oh_4694596-4 Units=km Length=0.642068357 bus1=410973_872_162683_381.2 bus2=410857_524_162535_683.2 switch=n enabled=y phases=1 Linecode=1P_OH_Code2

New Line.oh_14220191 Units=km Length=0.258000008 bus1=411661_414_161747_302.1.2.3 bus2=411702_129_161814_858.1.2.3 switch=n enabled=y phases=3 Linecode=3P_OH_Code3

New Line.oh_14184138-1 Units=km Length=0.148598341 bus1=31314202002.1.2.3 bus2=31314202003.1.2.3 switch=n enabled=y phases=3 Linecode=3P_OH_Code1

New Line.oh_4695250-3 Units=km Length=0.125406802 bus1=411014_375_162841_299.1.2.3 bus2=31214102010.1.2.3 switch=n enabled=y phases=3 Linecode=3P_OH_Code0

New Line.oh_4695431 Units=km Length=0.216889639 bus1=31214402503.1.2.3 bus2=411547_282_162449_072.1.2.3 switch=n enabled=y phases=3 Linecode=3P_OH_Code3

New Line.oh_14220918 Units=km Length=0.21530000999999999 bus1=31314202004.3 bus2=411707_187_161377_473.3 switch=n enabled=y phases=1 Linecode=1P_OH_Code2

New Line.oh_5099121 Units=km Length=0.09527 bus1=31214102005.1.2.3 bus2=410812_71_162933_717.1.2.3 switch=n enabled=y phases=3 Linecode=OVR_800_21859_3

New Line.oh_9646414 Units=km Length=0.23994030000000002 bus1=31213302503.1.2.3 bus2=31213302040.1.2.3 switch=n enabled=y phases=3 Linecode=3P_OH_Code0

New Line.oh_9646210 Units=km Length=0.31074631599999997 bus1=412522_382_161986_078.1.2.3 bus2=412609_378_161981_665.1.2.3 switch=n enabled=y phases=3 Linecode=3P_OH_Code0

New Line.oh_14220057-2 Units=km Length=0.605293556 bus1=31214402506.1.2.3 bus2=31214402010.1.2.3 switch=n enabled=y phases=3 Linecode=3P_OH_Code3

New Line.oh_5098914 Units=km Length=0.145546497 bus1=411049_406_162830_469.3 bus2=31214102503.3 switch=y enabled=n phases=1 Linecode=DEFAULT_1

New Line.oh_4695061-3 Units=km Length=0.078572594 bus1=410715_536_162992_755.1.2.3 bus2=31214102505.1.2.3 switch=n enabled=y phases=3 Linecode=3P_OH_Code0

New Line.oh_14219449 Units=km Length=0.296000009 bus1=411702_129_161814_858.1.2.3 bus2=31214402504.1.2.3 switch=n enabled=y phases=3 Linecode=3P_OH_Code3

New Line.oh_4695214-2 Units=km Length=0.110006746 bus1=31214102513.1.2.3 bus2=410882_541_162891_072.1.2.3 switch=n enabled=y phases=3 Linecode=3P_OH_Code0

New Line.oh_4695280-3 Units=km Length=0.144544736 bus1=31214102517.1.2.3 bus2=411270_727_162660_376.1.2.3 switch=n enabled=y phases=3 Linecode=3P_OH_Code0

New Line.oh_14220144-2 Units=km Length=0.20031790000000002 bus1=411458_156_161900_536.1 bus2=411433_767_161843_772.1 switch=n enabled=y phases=1 Linecode=1P_OH_Code2

New Line.oh_9646962 Units=km Length=0.149990011 bus1=412743_527_162066_584.1.2.3 bus2=TIEPOINT_31213302510.1.2.3 switch=y enabled=n phases=3 Linecode=11825_3

New Line.oh_4695447 Units=km Length=0.11285147300000001 bus1=31215202522.1.2.3 bus2=TIEPOINT_31215202517.1.2.3 switch=y enabled=n phases=3 Linecode=11825_3

New Line.oh_4695061-1 Units=km Length=0.120471319 bus1=31214102001.1.2.3 bus2=410807_604_162937_04.1.2.3 switch=n enabled=y phases=3 Linecode=3P_OH_Code0

New Line.oh_9645593 Units=km Length=0.030019128 bus1=31213302085_9981126.1.2.3 bus2=412378_506_161815_224.1.2.3 switch=y enabled=y phases=3 Linecode=21898_3

New Line.oh_14219499 Units=km Length=0.227000007 bus1=411791_21_161919_676.1.2.3 bus2=411849_001_161958_285.1.2.3 switch=n enabled=y phases=3 Linecode=3P_OH_Code3

New Line.oh_4694668 Units=km Length=0.312774905 bus1=31214102505.3 bus2=410768_869_163065_208.3 switch=n enabled=y phases=1 Linecode=1P_OH_Code2

New Line.oh_4695400 Units=km Length=0.14274399399999999 bus1=31214102015.1.2.3 bus2=411346_96_162618_855.1.2.3 switch=n enabled=y phases=3 Linecode=3P_OH_Code0

New Line.oh_9658296 Units=km Length=0.050000002 bus1=31213302014.1.2.3 bus2=31213302015.1.2.3 switch=n enabled=y phases=3 Linecode=3P_OH_Code0

New Line.oh_4695214-4 Units=km Length=0.08725663 bus1=410812_71_162933_717.1.2.3 bus2=410832_008_162920_866.1.2.3 switch=n enabled=y phases=3 Linecode=3P_OH_Code0

New Line.oh_5099114 Units=km Length=0.09527 bus1=410807_604_162937_04.1.2.3 bus2=31214102005.1.2.3 switch=n enabled=y phases=3 Linecode=3P_OH_Code0

New Line.oh_14184076 Units=km Length=0.23850678300000003 bus1=31314102503.1 bus2=411450_801_161725_235.1 switch=n enabled=y phases=1 Linecode=K_50_13.8KV_1

New Fuse.Fuse_oh_14184076 monitoredobj=Line.oh_14184076 enabled=y ratedcurrent=10000.0

New Line.oh_4694596-3 Units=km Length=0.446866533 bus1=31214302509.2 bus2=410973_872_162683_381.2 switch=n enabled=y phases=1 Linecode=1P_OH_Code2

New Line.oh_4694649-1 Units=km Length=0.318590181 bus1=411151_239_163087_165.3 bus2=411190_312_163152_274.3 switch=n enabled=y phases=1 Linecode=1P_OH_Code2

New Line.oh_9645453 Units=km Length=0.11287806500000001 bus1=31213302040.3 bus2=31213302039.3 switch=n enabled=y phases=1 Linecode=1P_OH_Code2

New Line.oh_14184156-2 Units=km Length=0.093653792 bus1=31314202001.1.2.3 bus2=TIEPOINT_31314202007.1.2.3 switch=n enabled=y phases=3 Linecode=3P_OH_Code1

New Line.oh_14183984-1 Units=km Length=0.260107308 bus1=31314202003.1.2.3 bus2=31314202004.1.2.3 switch=n enabled=y phases=3 Linecode=3P_OH_Code1

New Line.oh_5098908 Units=km Length=0.145546497 bus1=31214102010.3 bus2=31214102503.3 switch=n enabled=y phases=1 Linecode=1P_OH_Code2

New Line.oh_4695242 Units=km Length=0.13040128 bus1=31214102008.1.2.3 bus2=411014_375_162841_299.1.2.3 switch=n enabled=y phases=3 Linecode=3P_OH_Code0

New Line.oh_14183313-2 Units=km Length=0.204885223 bus1=31314202042.3 bus2=411547_161_161408_876.3 switch=n enabled=y phases=1 Linecode=1P_OH_Code2

New Line.oh_4694596-1 Units=km Length=0.207087372 bus1=411171_749_162706_861.2 bus2=411130_661_162658_956.2 switch=n enabled=y phases=1 Linecode=1P_OH_Code2

New Line.oh_4694649-3 Units=km Length=0.28815118 bus1=411047_703_162935_485.3 bus2=411098_086_163013_155.3 switch=n enabled=y phases=1 Linecode=1P_OH_Code2

New Line.oh_4694593-1 Units=km Length=0.031624742000000004 bus1=PROTDEV_4904635.2 bus2=411171_749_162706_861.2 switch=n enabled=y phases=1 Linecode=1P_OH_Code2

New Line.oh_4695456-1 Units=km Length=0.21074247399999999 bus1=410612_905_162932_89.3 bus2=410578_653_162878_559.3 switch=n enabled=y phases=1 Linecode=1P_OH_Code2

New Line.oh_4695061-5 Units=km Length=0.153533634 bus1=410634_186_163052_259.1.2.3 bus2=31214102504.1.2.3 switch=n enabled=y phases=3 Linecode=3P_OH_Code0

New Line.oh_5099128 Units=km Length=0.09527 bus1=410812_71_162933_717.1.2.3 bus2=31214102005.1.2.3 switch=y enabled=n phases=3 Linecode=21859_3

New Line.oh_14184064-4 Units=km Length=0.08268777799999999 bus1=31314102004.1 bus2=411269_802_161612_74.1 switch=n enabled=y phases=1 Linecode=1P_OH_Code2

New Line.oh_14219463 Units=km Length=0.173509999 bus1=31214402504.1.2.3 bus2=411770_33_161831_057.1.2.3 switch=y enabled=y phases=3 Linecode=21898_3

New Line.oh_4695322-1 Units=km Length=0.157855901 bus1=411387_712_162599_597.1.2.3 bus2=31214302501.1.2.3 switch=n enabled=y phases=3 Linecode=3P_OH_Code0

New Line.oh_4695280-5 Units=km Length=0.068149418 bus1=31214102501.1.2.3 bus2=411204_782_162703_244.1.2.3 switch=n enabled=y phases=3 Linecode=3P_OH_Code0

New Line.oh_14184114-1 Units=km Length=0.123040309 bus1=411750_608_161719_681.1.2.3 bus2=411746_677_161688_48.1.2.3 switch=n enabled=y phases=3 Linecode=3P_OH_Code1

New Line.oh_14184138-2 Units=km Length=0.10390186400000001 bus1=31314202047.1.2.3 bus2=31314202002.1.2.3 switch=n enabled=y phases=3 Linecode=3P_OH_Code1

New Line.oh_4695456-3 Units=km Length=0.20292109600000002 bus1=410546_822_162824_564.3 bus2=410515_508_162771_235.3 switch=n enabled=y phases=1 Linecode=1P_OH_Code2

New Line.oh_4696680 Units=km Length=0.11504799900000001 bus1=31214102007.1.2.3 bus2=31214102008.1.2.3 switch=n enabled=y phases=3 Linecode=3P_OH_Code0

New Line.oh_14220141 Units=km Length=0.256689247 bus1=31214402003.1 bus2=411484_172_161967_848.1 switch=n enabled=y phases=1 Linecode=K_101_13.8KV_1

New Fuse.Fuse_oh_14220141 monitoredobj=Line.oh_14220141 enabled=y ratedcurrent=10000.0

New Line.oh_4673985 Units=km Length=0.200000006 bus1=31114302550.1.2.3 bus2=31114302551.1.2.3 switch=n enabled=y phases=3 Linecode=3P_OH_Code5

New Line.oh_14184064 Units=km Length=0.08337881500000001 bus1=411306_551_161553_622.1 bus2=31314102504.1 switch=n enabled=y phases=1 Linecode=1P_OH_Code2

New Line.oh_14184114-3 Units=km Length=0.164785228 bus1=411742_031_161613_983.1.2.3 bus2=411740_192_161571_906.1.2.3 switch=n enabled=y phases=3 Linecode=3P_OH_Code1

New Line.oh_4695407 Units=km Length=0.39381740400000004 bus1=31214302501.1.2.3 bus2=31214402503.1.2.3 switch=n enabled=y phases=3 Linecode=3P_OH_Code0

New Line.oh_9589327 Units=km Length=0.326446789 bus1=31313102033_9981091.1.2.3 bus2=412383_704_161808_904.1.2.3 switch=n enabled=y phases=3 Linecode=3P_OH_Code3

New Line.oh_4695273 Units=km Length=0.137197317 bus1=31214102101_4854916.1.2.3 bus2=411146_968_162744_681.1.2.3 switch=y enabled=y phases=3 Linecode=11825_3

New Line.oh_4931181 Units=km Length=0.01 bus1=SOURCE_7773-1.1.2.3 bus2=31114303147.1.2.3 switch=y enabled=y phases=3 Linecode=SUB_V_13.0KV_3

New Line.oh_14220057-1 Units=km Length=0.405977962 bus1=31214402010.1.2.3 bus2=411569_014_162016_151.1.2.3 switch=n enabled=y phases=3 Linecode=3P_OH_Code3

New Line.oh_14184058-2 Units=km Length=0.215423314 bus1=31314102505.1 bus2=411313_618_161570_395.1 switch=n enabled=y phases=1 Linecode=1P_OH_Code2

New Line.oh_4696151 Units=km Length=0.007297979 bus1=410609_26_163071_653.1.2.3 bus2=31215202522.1.2.3 switch=n enabled=y phases=3 Linecode=3P_OH_Code0

New Line.oh_9646317 Units=km Length=0.152000005 bus1=412256_81_161835_016.1.2.3 bus2=412286_871_161799_65.1.2.3 switch=n enabled=y phases=3 Linecode=3P_OH_Code3

New Line.oh_14220050 Units=km Length=0.153550008 bus1=31214402504.1.2.3 bus2=411791_21_161919_676.1.2.3 switch=n enabled=y phases=3 Linecode=3P_OH_Code3

New Line.oh_14219492 Units=km Length=0.084144291 bus1=31214402000.1.2.3 bus2=31314202011.1.2.3 switch=n enabled=y phases=3 Linecode=3P_OH_Code1

New Line.oh_14219472 Units=km Length=0.11795 bus1=411770_33_161831_057.1.2.3 bus2=31214402000.1.2.3 switch=n enabled=y phases=3 Linecode=3P_OH_Code1

New Line.oh_4694643 Units=km Length=0.158030356 bus1=410639_826_162972_892.3 bus2=410612_905_162932_89.3 switch=n enabled=y phases=1 Linecode=1P_OH_Code2

New Line.oh_4695214-1 Units=km Length=0.249113351 bus1=410882_541_162891_072.1.2.3 bus2=31214102007.1.2.3 switch=n enabled=y phases=3 Linecode=3P_OH_Code0

New Line.oh_14220106 Units=km Length=0.035588102 bus1=31214402010.2.3 bus2=411569_181_162137_934.2.3 switch=n enabled=y phases=2 Linecode=K_100_13.8KV_2

New Fuse.Fuse_oh_14220106 monitoredobj=Line.oh_14220106 enabled=y ratedcurrent=10000.0

New Line.oh_4695250-2 Units=km Length=0.151006891 bus1=31214102010.1.2.3 bus2=411085_939_162797_327.1.2.3 switch=n enabled=y phases=3 Linecode=3P_OH_Code0

New Line.oh_14220057-3 Units=km Length=0.467542279 bus1=411547_282_162449_072.1.2.3 bus2=31214402506.1.2.3 switch=n enabled=y phases=3 Linecode=3P_OH_Code3

New Line.oh_4695342 Units=km Length=0.227421165 bus1=31214302509.2 bus2=411040_797_162556_919.2 switch=n enabled=y phases=1 Linecode=1P_OH_Code2

New Line.oh_9646324 Units=km Length=0.055221701000000005 bus1=412383_704_161808_904.1.2.3 bus2=31213302085_9981126.1.2.3 switch=n enabled=y phases=3 Linecode=3P_OH_Code3

New Line.oh_4931211 Units=km Length=0.01 bus1=31114303132.1.2.3 bus2=TIEPOINT_31114303153.1.2.3 switch=y enabled=n phases=3 Linecode=SUB_V_13.0KV_3

New Line.oh_4930607 Units=km Length=0.02000004 bus1=31114303132.1.2.3 bus2=4932737.1.2.3 switch=n enabled=y phases=3 Linecode=3P_OH_Code6

New Line.oh_4695214-3 Units=km Length=0.110799577 bus1=410832_008_162920_866.1.2.3 bus2=31214102513.1.2.3 switch=n enabled=y phases=3 Linecode=3P_OH_Code0

New Line.oh_9646421 Units=km Length=1.318000042 bus1=411849_001_161958_285.1.2.3 bus2=412222_092_161863_049.1.2.3 switch=n enabled=y phases=3 Linecode=3P_OH_Code3

New Line.oh_14220134 Units=km Length=0.157090307 bus1=411564_042_161986_504.1.2.3 bus2=31214402003.1.2.3 switch=n enabled=y phases=3 Linecode=3P_OH_Code3

New Line.oh_9645892 Units=km Length=0.379852765 bus1=412306_198_161937_448.1.2.3 bus2=31213302503.1.2.3 switch=n enabled=y phases=3 Linecode=3P_OH_Code3

New Line.oh_14220144-1 Units=km Length=0.234645982 bus1=411484_172_161967_848.1 bus2=411458_156_161900_536.1 switch=n enabled=y phases=1 Linecode=1P_OH_Code2

New Line.oh_9646983 Units=km Length=0.46793264900000003 bus1=412609_378_161981_665.1.2.3 bus2=31213302014.1.2.3 switch=n enabled=y phases=3 Linecode=3P_OH_Code0

New Line.oh_14183984-2 Units=km Length=0.16728281 bus1=31314202004.1.2.3 bus2=411743_924_161329_792.1.2.3 switch=n enabled=y phases=3 Linecode=3P_OH_Code1

New Line.oh_4695061-2 Units=km Length=0.154732295 bus1=31214102505.1.2.3 bus2=31214102001.1.2.3 switch=n enabled=y phases=3 Linecode=3P_OH_Code0

New Line.oh_9646064 Units=km Length=0.509268586 bus1=31213302503.1.2.3 bus2=412522_382_161986_078.1.2.3 switch=n enabled=y phases=3 Linecode=3P_OH_Code4

New Line.oh_4931161 Units=km Length=0.01 bus1=31114303147.1.2.3 bus2=31114303132.1.2.3 switch=n enabled=y phases=3 Linecode=3P_OH_Code6

New Line.oh_9657569 Units=km Length=0.050000002 bus1=31213302015.1.2.3 bus2=31213302022.1.2.3 switch=y enabled=y phases=3 Linecode=11825_3

New Line.oh_4694581 Units=km Length=0.016310627 bus1=31214102513.2.3 bus2=31214102514.2.3 switch=n enabled=y phases=2 Linecode=2P_OH_Code7

New Line.oh_14184107 Units=km Length=0.032686651 bus1=31314202011.1.2.3 bus2=31314202520.1.2.3 switch=n enabled=y phases=3 Linecode=OVR_800_21859_3_8

New Line.oh_4694593-2 Units=km Length=0.027010076 bus1=31214102501.2 bus2=PROTDEV_4904635.2 switch=n enabled=y phases=1 Linecode=K_100_13.8KV_1

New Fuse.Fuse_oh_4694593-2 monitoredobj=Line.oh_4694593-2 enabled=y ratedcurrent=10000.0

New Line.oh_14220144-3 Units=km Length=0.198475663 bus1=411433_767_161843_772.1 bus2=411410_848_161787_011.1 switch=n enabled=y phases=1 Linecode=1P_OH_Code2

New Line.oh_14220806 Units=km Length=0.135807255 bus1=411313_618_161570_395.1 bus2=411306_551_161553_622.1 switch=n enabled=y phases=1 Linecode=1P_OH_Code2

New Line.oh_5098911 Units=km Length=0.145546497 bus1=31214102503.3 bus2=411049_406_162830_469.3 switch=n enabled=y phases=1 Linecode=K_65_13.8KV_1

New Fuse.Fuse_oh_5098911 monitoredobj=Line.oh_5098911 enabled=y ratedcurrent=10000.0

New Line.oh_4695352 Units=km Length=0.36830787299999995 bus1=411049_406_162830_469.3 bus2=411047_703_162935_485.3 switch=n enabled=y phases=1 Linecode=1P_OH_Code2

New Line.oh_9645572 Units=km Length=0.146000005 bus1=412222_092_161863_049.1.2.3 bus2=412256_81_161835_016.1.2.3 switch=n enabled=y phases=3 Linecode=3P_OH_Code3

New Line.oh_14183313-1 Units=km Length=0.21924479700000002 bus1=31314202505.3 bus2=31314202042.3 switch=n enabled=y phases=1 Linecode=1P_OH_Code2

New Line.oh_14220733 Units=km Length=0.157090307 bus1=411569_014_162016_151.1.2.3 bus2=411564_042_161986_504.1.2.3 switch=n enabled=y phases=3 Linecode=3P_OH_Code3

New Line.oh_14183981 Units=km Length=0.106438609 bus1=411232_609_161679_961.1 bus2=411205_161697_018.1 switch=n enabled=y phases=1 Linecode=1P_OH_Code2

New Line.oh_14220171 Units=km Length=0.585000019 bus1=411542_829_161887_337.1.2.3 bus2=31314202510.1.2.3 switch=n enabled=y phases=3 Linecode=3P_OH_Code3

New Line.oh_4694596-2 Units=km Length=0.2184769 bus1=411130_661_162658_956.2 bus2=31214302509.2 switch=n enabled=y phases=1 Linecode=1P_OH_Code2

New Line.oh_4694649-2 Units=km Length=0.283604409 bus1=411098_086_163013_155.3 bus2=411151_239_163087_165.3 switch=n enabled=y phases=1 Linecode=1P_OH_Code2

New Line.oh_4695280-6 Units=km Length=0.16522017600000002 bus1=411146_968_162744_681.1.2.3 bus2=31214102501.1.2.3 switch=n enabled=y phases=3 Linecode=3P_OH_Code0

New Line.oh_9645768 Units=km Length=0.296640055 bus1=412355_702_161854_709.1.2.3 bus2=412306_198_161937_448.1.2.3 switch=n enabled=y phases=3 Linecode=3P_OH_Code3

New Line.oh_4695061-6 Units=km Length=0.103295545 bus1=31215202522.1.2.3 bus2=410634_186_163052_259.1.2.3 switch=n enabled=y phases=3 Linecode=3P_OH_Code0

New Line.oh_14184064-3 Units=km Length=0.224158977 bus1=31314102504.1 bus2=31314102004.1 switch=n enabled=y phases=1 Linecode=1P_OH_Code2

New Line.oh_14184082 Units=km Length=0.503012283 bus1=31314202510.1.2.3 bus2=31314202509.1.2.3 switch=n enabled=y phases=3 Linecode=3P_OH_Code1

New Line.oh_14220826-1 Units=km Length=0.21667501 bus1=31314202520.1.2.3 bus2=411750_608_161719_681.1.2.3 switch=n enabled=y phases=3 Linecode=3P_OH_Code1

New Line.oh_39994345 Units=km Length=0.059636652 bus1=411740_192_161571_906.1.2.3 bus2=31314202047.1.2.3 switch=n enabled=y phases=3 Linecode=3P_OH_Code1

New Line.oh_14183299 Units=km Length=0.039226504 bus1=31314202520.1.2.3 bus2=411750_127_161752_207.1.2.3 switch=n enabled=y phases=3 Linecode=K_50_13.8KV_3

New Fuse.Fuse_oh_14183299 monitoredobj=Line.oh_14183299 enabled=y ratedcurrent=10000.0

New Line.oh_14220866 Units=km Length=0.201422004 bus1=411743_924_161329_792.1.2.3 bus2=411743_927_161328_127.1.2.3 switch=n enabled=y phases=3 Linecode=3P_OH_Code1

New Line.ug_45658121 Units=km Length=0.22706031200000001 bus1=31314202047.2 bus2=411685_91_161555_618.2 switch=n enabled=y phases=1 Linecode=K_40_13.8KV_1

New Fuse.Fuse_ug_45658121 monitoredobj=Line.ug_45658121 enabled=y ratedcurrent=10000.0

New Line.ug_9578542 Units=km Length=0.397616742 bus1=31213302064.1.2.3 bus2=412530_811_162178_145.1.2.3 switch=n enabled=y phases=3 Linecode=3P_UG_Code9

New Line.ug_10200278-1_1 Units=km Length=0.008475666 bus1=31213302048_LEG1.1.2.3 bus2=31213302048_LEG1_sec_0.1.2.3 switch=y enabled=y phases=3 Linecode=12917_3

New Line.ug_9562367_1 Units=km Length=0.26694953600000004 bus1=411840_63_161889_444.2 bus2=411840_63_161889_444_sec_0.2 switch=y enabled=y phases=1 Linecode=SWT_TERMINATOR_1

New Line.ug_14163077 Units=km Length=0.34531549300000003 bus1=31314202001.2 bus2=411656_088_161313_565.2 switch=n enabled=y phases=1 Linecode=K_30_13.8KV_1

New Fuse.Fuse_ug_14163077 monitoredobj=Line.ug_14163077 enabled=y ratedcurrent=10000.0

New Line.ug_4628709-1 Units=km Length=0.708311105 bus1=411307_518_162629_345.3 bus2=411258_485_162453_873.3 switch=y enabled=y phases=1 Linecode=SWT_TERMINATOR_1

New Line.ug_9578296 Units=km Length=0.071260071 bus1=31213302051.1.2.3 bus2=412308_618_162270_936.1.2.3 switch=y enabled=y phases=3 Linecode=SWT_TERMINATOR_3

New Line.ug_14162840_1 Units=km Length=0.410250361 bus1=411204_082_162039_715.2 bus2=411204_082_162039_715_sec_0.2 switch=y enabled=y phases=1 Linecode=SWT_TERMINATOR_1

New Line.ug_9579518 Units=km Length=0.079656791 bus1=412506_218_162037_341.1.2.3 bus2=31213302064.1.2.3 switch=y enabled=y phases=3 Linecode=SWT_TERMINATOR_3

New Line.ug_10199848-1 Units=km Length=0.001719652 bus1=412451_347_162342_986.1.2.3 bus2=PROTDEV_10174392.1.2.3 switch=n enabled=y phases=3 Linecode=3P_UG_Code10

New Line.ug_10200208-1 Units=km Length=0.001649833 bus1=PROTDEV_10174512.1.2.3 bus2=TIEPOINT_10173607.1.2.3 switch=n enabled=y phases=3 Linecode=QG12_125_13.8KV_3

New Fuse.Fuse_ug_10200208-1 monitoredobj=Line.ug_10200208-1 enabled=y ratedcurrent=40000.0

New Line.ug_4628663 Units=km Length=0.16837033 bus1=410857_524_162535_683.2 bus2=410825_991_162516_99.2 switch=n enabled=y phases=1 Linecode=K_65_13.8KV_1

New Fuse.Fuse_ug_4628663 monitoredobj=Line.ug_4628663 enabled=y ratedcurrent=10000.0

New Line.ug_14148740 Units=km Length=0.516602484 bus1=411750_127_161752_207.1 bus2=411831_909_161765_651.1 switch=y enabled=y phases=1 Linecode=SWT_TERMINATOR_1

New Line.ug_4655009_1 Units=km Length=0.313868084 bus1=410769_701_162835_522.3 bus2=410769_701_162835_522_sec_0.3 switch=y enabled=y phases=1 Linecode=SWT_TERMINATOR_1

New Line.ug_10199818 Units=km Length=0.01 bus1=412444_68_162348_748.1.2.3 bus2=TIEPOINT_10173442.1.2.3 switch=n enabled=y phases=3 Linecode=3P_UG_Code10

New Line.ug_10200253-1 Units=km Length=0.008348061 bus1=31213302047_LEG1.1.2.3 bus2=PROTDEV_10173622.1.2.3 switch=y enabled=y phases=3 Linecode=12917_3

New Line.ug_40436776_1 Units=km Length=0.780819297 bus1=411837_195_161642_878.1 bus2=411837_195_161642_878_sec_0.1 switch=y enabled=y phases=1 Linecode=SWT_TERMINATOR_1

New Line.ug_4641391 Units=km Length=1.0300005349999999 bus1=31214102007.1 bus2=410757_317_162659_77.1 switch=n enabled=y phases=1 Linecode=K_80_13.8KV_1

New Fuse.Fuse_ug_4641391 monitoredobj=Line.ug_4641391 enabled=y ratedcurrent=10000.0

New Line.ug_9577952 Units=km Length=0.560887003 bus1=412234_431_162047_683.3 bus2=412122_045_162144_758.3 switch=y enabled=y phases=1 Linecode=SWT_TERMINATOR_1

New Line.ug_4638575 Units=km Length=0.524729659 bus1=410591_395_162725_932.3 bus2=31215202015.3 switch=y enabled=y phases=1 Linecode=SWT_TERMINATOR_1

New Line.ug_4628697_1 Units=km Length=0.52341441 bus1=410976_642_163177_84.3 bus2=410976_642_163177_84_sec_0.3 switch=y enabled=y phases=1 Linecode=SWT_TERMINATOR_1

New Line.ug_10200243-2 Units=km Length=0.001473671 bus1=412536_51_162183_261.1.2.3 bus2=PROTDEV_10174527.1.2.3 switch=n enabled=y phases=3 Linecode=3P_UG_Code10

New Line.ug_14162862_1 Units=km Length=0.9515531509999999 bus1=411174_589_162288_899.2 bus2=411174_589_162288_899_sec_0.2 switch=y enabled=n phases=1 Linecode=SWT_TERMINATOR_1

New Line.ug_9588849 Units=km Length=0.053233243 bus1=31213302072.1.2.3 bus2=31213302020.1.2.3 switch=n enabled=y phases=3 Linecode=3P_UG_Code9

New Line.ug_9545622_1 Units=km Length=0.281166771 bus1=412385_711_161466_875.1 bus2=412385_711_161466_875_sec_0.1 switch=y enabled=y phases=1 Linecode=SWT_TERMINATOR_1

New Line.ug_10199803-1_1 Units=km Length=0.008334902 bus1=PROTDEV_10173432.1.2.3 bus2=PROTDEV_10173432_sec_0.1.2.3 switch=y enabled=y phases=3 Linecode=12917_3

New Line.ug_9546608-1_1 Units=km Length=1.4490427790000002 bus1=411965_523_161755_861.3 bus2=411965_523_161755_861_sec_0.3 switch=y enabled=y phases=1 Linecode=SWT_TERMINATOR_1

New Line.ug_9562373-1 Units=km Length=1.030863334 bus1=31214402001.3 bus2=411996_666_161861_038.3 switch=y enabled=y phases=1 Linecode=SWT_TERMINATOR_1

New Line.ug_41763867 Units=km Length=0.010958816000000001 bus1=31314202047.1.3 bus2=31314202049.1.3 switch=n enabled=y phases=2 Linecode=XL_80_13.8KV_2

New Fuse.Fuse_ug_41763867 monitoredobj=Line.ug_41763867 enabled=y ratedcurrent=40000.0

New Line.ug_9579345 Units=km Length=0.276408398 bus1=31213302044.1.2.3 bus2=31313102018_LEG2.1.2.3 switch=n enabled=y phases=3 Linecode=3P_UG_Code9

New Line.ug_10199858-1_1 Units=km Length=0.008231529 bus1=31213302017_LEG1.1.2.3 bus2=31213302017_LEG1_sec_0.1.2.3 switch=y enabled=y phases=3 Linecode=12917_3

New Line.ug_4628837 Units=km Length=0.223587465 bus1=410515_508_162771_235.3 bus2=410475_444_162730_44.3 switch=n enabled=y phases=1 Linecode=K_80_13.8KV_1

New Fuse.Fuse_ug_4628837 monitoredobj=Line.ug_4628837 enabled=y ratedcurrent=10000.0

New Line.ug_9578286 Units=km Length=0.544011763 bus1=31213302017_LEG3.1.2.3 bus2=31213302051.1.2.3 switch=n enabled=y phases=3 Linecode=3P_UG_Code11

New Line.ug_14164873 Units=km Length=0.481240111 bus1=31214402506.1.2.3 bus2=31214402007.1.2.3 switch=n enabled=y phases=3 Linecode=KL_25_13.8KV_3

New Fuse.Fuse_ug_14164873 monitoredobj=Line.ug_14164873 enabled=y ratedcurrent=40000.0

New Line.ug_4628821_1 Units=km Length=0.348878453 bus1=411458_886_162588_377.1 bus2=411458_886_162588_377_sec_0.1 switch=y enabled=y phases=1 Linecode=SWT_TERMINATOR_1

New Line.ug_4628841 Units=km Length=0.182129776 bus1=31215202015.3 bus2=410466_461_162658_713.3 switch=y enabled=y phases=1 Linecode=SWT_TERMINATOR_1

New Line.ug_14162854_1 Units=km Length=0.394015383 bus1=411261_327_162219_527.2 bus2=411261_327_162219_527_sec_0.2 switch=y enabled=y phases=1 Linecode=SWT_TERMINATOR_1

New Line.ug_5056994 Units=km Length=0.01 bus1=410879_192_163125_529.3 bus2=31214102526_LEG3.3 switch=y enabled=y phases=1 Linecode=12447_1

New Line.ug_9577748 Units=km Length=1.166269299 bus1=31213302020.1.2.3 bus2=31213302018_LEG1.1.2.3 switch=n enabled=y phases=3 Linecode=3P_UG_Code9

New Line.ug_9578537 Units=km Length=0.41381969199999996 bus1=31213302047_LEG3.1.2.3 bus2=31213302063.1.2.3 switch=n enabled=y phases=3 Linecode=3P_UG_Code9

New Line.ug_10200648-2 Units=km Length=0.00838046 bus1=412658_446_162064_56.1.2.3 bus2=PROTDEV_10173792.1.2.3 switch=y enabled=y phases=3 Linecode=12B05_3

New Line.ug_4628706 Units=km Length=0.6261833010000001 bus1=410957_666_163208_121.3 bus2=31214102526_LEG2.3 switch=y enabled=y phases=1 Linecode=SWT_TERMINATOR_1

New Line.ug_10200128_1 Units=km Length=0.01 bus1=31313102018_LEG2.1.2.3 bus2=31313102018_LEG2_sec_0.1.2.3 switch=y enabled=y phases=3 Linecode=12917_3

New Line.ug_10199823-1 Units=km Length=0.001665131 bus1=412444_68_162348_748.1.2.3 bus2=PROTDEV_10174382.1.2.3 switch=n enabled=y phases=3 Linecode=EF40P_140_13.8KV_3

New Fuse.Fuse_ug_10199823-1 monitoredobj=Line.ug_10199823-1 enabled=y ratedcurrent=40000.0

New Line.ug_4628818_1 Units=km Length=0.26412724600000004 bus1=411422_864_162566_122.1 bus2=411422_864_162566_122_sec_0.1 switch=y enabled=y phases=1 Linecode=SWT_TERMINATOR_1

New Line.ug_14162797_1 Units=km Length=0.248340851 bus1=410953_175_162333_105.2 bus2=410953_175_162333_105_sec_0.2 switch=y enabled=n phases=1 Linecode=SWT_TERMINATOR_1

New Line.ug_14162919_1 Units=km Length=0.420153124 bus1=411258_485_162453_873.3 bus2=411258_485_162453_873_sec_0.3 switch=y enabled=y phases=1 Linecode=SWT_TERMINATOR_1

New Line.ug_9577773 Units=km Length=0.546170126 bus1=412315_099_162273_61.1.2.3 bus2=31213302016_LEG3.1.2.3 switch=y enabled=y phases=3 Linecode=SWT_TERMINATOR_3

New Line.ug_10200248-1 Units=km Length=0.008150453 bus1=PROTDEV_10173617.1.2.3 bus2=31213302047_LEG2.1.2.3 switch=n enabled=y phases=3 Linecode=3P_UG_Code10

New Line.ug_4638582 Units=km Length=0.5278830090000001 bus1=31215202014.3 bus2=410591_395_162725_932.3 switch=y enabled=y phases=1 Linecode=SWT_TERMINATOR_1
