Clear

New Circuit.Full_Network bus1=SOURCE_7773 pu=1.0 basekV=13.8 R1=0.015559 X1=0.59941 R0=0.02788 X0=0.579566

Redirect LineCodes.dss
Redirect Lines.dss
Redirect Transformers.dss
Redirect Loads.dss
Redirect Capacitors.dss

New energymeter.M1 element=Transformer.Sub terminal=1

Set Voltagebases=[0.416, 0.48, 13.2, 13.8]

Calcvoltagebases

Buscoords Buscoords.dss

Solve